


                               __________________________________________
                              |                                          |
                              |  NUMERICAL ELECTROMAGNETICS CODE (nec2c) |
                              |   Translated to 'C' in Double Precision  |
                              |__________________________________________|



                               ---------------- COMMENTS ----------------
                               Long Wire Antenna — NEC2 Model
                               Wire length: 13.3 m  |  Counterpoise: 10.0 m  |  Height: 5.0 m
                               Wire diameter: 1.0 mm  |  Conductivity: 5.80E+7 S/m
                               Frequency sweep: 7.00 – 14.50 MHz  step 0.50 MHz
                               Generated by Long Wire Antenna Calculator – LU3VEA
                              



                               -------- STRUCTURE SPECIFICATION --------
                                     COORDINATES MUST BE INPUT IN
                                     METERS OR BE SCALED TO METERS
                                     BEFORE STRUCTURE INPUT IS ENDED

  WIRE                                                                                 SEG FIRST  LAST  TAG
   No:        X1         Y1         Z1         X2         Y2         Z2       RADIUS   No:   SEG   SEG  No:
     1    -6.65000    0.00000    5.00000    6.65000    0.00000    5.00000    0.00050    11     1    11    1
     2   -16.61500    0.00000    5.00000   -6.65000    0.00000    5.00000    0.00050     7    12    18    2

     GROUND PLANE SPECIFIED.
     WHERE WIRE ENDS TOUCH GROUND, CURRENT WILL BE INTERPOLATED TO IMAGE IN GROUND PLANE.


     TOTAL SEGMENTS USED: 18   SEGMENTS IN A SYMMETRIC CELL: 18   SYMMETRY FLAG: 0


                               ---------- SEGMENTATION DATA ----------
                                        COORDINATES IN METERS
                            I+ AND I- INDICATE THE SEGMENTS BEFORE AND AFTER I

   SEG    COORDINATES OF SEGM CENTER     SEGM    ORIENTATION ANGLES    WIRE    CONNECTION DATA   TAG
   No:       X         Y         Z      LENGTH     ALPHA      BETA    RADIUS    I-     I    I+   No:
     1   -6.0455    0.0000    5.0000    1.2091    0.0000    0.0000    0.0005    18     1     2     1
     2   -4.8364    0.0000    5.0000    1.2091    0.0000    0.0000    0.0005     1     2     3     1
     3   -3.6273    0.0000    5.0000    1.2091    0.0000    0.0000    0.0005     2     3     4     1
     4   -2.4182    0.0000    5.0000    1.2091    0.0000    0.0000    0.0005     3     4     5     1
     5   -1.2091    0.0000    5.0000    1.2091    0.0000    0.0000    0.0005     4     5     6     1
     6   -0.0000    0.0000    5.0000    1.2091    0.0000    0.0000    0.0005     5     6     7     1
     7    1.2091    0.0000    5.0000    1.2091    0.0000    0.0000    0.0005     6     7     8     1
     8    2.4182    0.0000    5.0000    1.2091    0.0000    0.0000    0.0005     7     8     9     1
     9    3.6273    0.0000    5.0000    1.2091    0.0000    0.0000    0.0005     8     9    10     1
    10    4.8364    0.0000    5.0000    1.2091    0.0000    0.0000    0.0005     9    10    11     1
    11    6.0455    0.0000    5.0000    1.2091    0.0000    0.0000    0.0005    10    11     0     1
    12  -15.9032    0.0000    5.0000    1.4236    0.0000    0.0000    0.0005     0    12    13     2
    13  -14.4796    0.0000    5.0000    1.4236    0.0000    0.0000    0.0005    12    13    14     2
    14  -13.0561    0.0000    5.0000    1.4236    0.0000    0.0000    0.0005    13    14    15     2
    15  -11.6325    0.0000    5.0000    1.4236    0.0000    0.0000    0.0005    14    15    16     2
    16  -10.2089    0.0000    5.0000    1.4236    0.0000    0.0000    0.0005    15    16    17     2
    17   -8.7854    0.0000    5.0000    1.4236    0.0000    0.0000    0.0005    16    17    18     2
    18   -7.3618    0.0000    5.0000    1.4236    0.0000    0.0000    0.0005    17    18     1     2



  DATA CARD No:   1 LD   5     1     1    11  5.80000E+07  0.00000E+00  0.00000E+00  0.00000E+00  0.00000E+00  0.00000E+00
  DATA CARD No:   2 LD   5     2     1     7  5.80000E+07  0.00000E+00  0.00000E+00  0.00000E+00  0.00000E+00  0.00000E+00
  DATA CARD No:   3 EX   0     1     1     0  1.00000E+00  0.00000E+00  0.00000E+00  0.00000E+00  0.00000E+00  0.00000E+00
  DATA CARD No:   4 GN   2     0     0     0  1.30000E+01  5.00000E-03  0.00000E+00  0.00000E+00  0.00000E+00  0.00000E+00
  DATA CARD No:   5 FR   0    16     0     0  7.00000E+00  5.00000E-01  0.00000E+00  0.00000E+00  0.00000E+00  0.00000E+00
  DATA CARD No:   6 RP   0     1   361  1000  9.00000E+01  0.00000E+00  0.00000E+00  1.00000E+00  0.00000E+00  0.00000E+00


                               --------- FREQUENCY --------
                                FREQUENCY : 7.0000E+00 MHz
                                WAVELENGTH: 4.2829E+01 Mtr

                        APPROXIMATE INTEGRATION EMPLOYED FOR SEGMENTS 
                        THAT ARE MORE THAN 1.000 WAVELENGTHS APART


                          ------ STRUCTURE IMPEDANCE LOADING ------
  LOCATION        RESISTANCE  INDUCTANCE  CAPACITANCE     IMPEDANCE (OHMS)   CONDUCTIVITY  CIRCUIT
  ITAG FROM THRU     OHMS       HENRYS      FARADS       REAL     IMAGINARY   MHOS/METER      TYPE
     1    1   11                                                              5.8000E+07     WIRE  
     2    1    7                                                              5.8000E+07     WIRE  


                            -------- ANTENNA ENVIRONMENT --------
                            FINITE GROUND - SOMMERFELD SOLUTION
                            RELATIVE DIELECTRIC CONST: 13.000
                            CONDUCTIVITY:  5.000E-03 MHOS/METER
                            COMPLEX DIELECTRIC CONSTANT:  1.3000E+01-1.2840E+01j


                             ---------- MATRIX TIMING ----------
                               FILL: 0 msec  FACTOR: 0 msec


                        --------- ANTENNA INPUT PARAMETERS ---------
  TAG   SEG       VOLTAGE (VOLTS)         CURRENT (AMPS)         IMPEDANCE (OHMS)        ADMITTANCE (MHOS)     POWER
  No:   No:     REAL      IMAGINARY     REAL      IMAGINARY     REAL      IMAGINARY    REAL       IMAGINARY   (WATTS)
    1     1  1.0000E+00  0.0000E+00  1.3230E-03 -3.7988E-03  8.1761E+01  2.3477E+02  1.3230E-03 -3.7988E-03  6.6150E-04


                           -------- CURRENTS AND LOCATION --------
                                  DISTANCES IN WAVELENGTHS

   SEG  TAG    COORDINATES OF SEGM CENTER     SEGM    ------------- CURRENT (AMPS) -------------
   No:  No:       X         Y         Z      LENGTH     REAL      IMAGINARY    MAGN        PHASE
     1    1   -0.1412    0.0000    0.1167   0.02823  1.3230E-03 -3.7988E-03  4.0226E-03  -70.798
     2    1   -0.1129    0.0000    0.1167   0.02823  1.3360E-03 -3.9935E-03  4.2110E-03  -71.503
     3    1   -0.0847    0.0000    0.1167   0.02823  1.3139E-03 -4.0874E-03  4.2934E-03  -72.180
     4    1   -0.0565    0.0000    0.1167   0.02823  1.2574E-03 -4.0386E-03  4.2298E-03  -72.706
     5    1   -0.0282    0.0000    0.1167   0.02823  1.1682E-03 -3.8533E-03  4.0265E-03  -73.135
     6    1   -0.0000    0.0000    0.1167   0.02823  1.0485E-03 -3.5388E-03  3.6909E-03  -73.496
     7    1    0.0282    0.0000    0.1167   0.02823  9.0176E-04 -3.1050E-03  3.2333E-03  -73.806
     8    1    0.0565    0.0000    0.1167   0.02823  7.3171E-04 -2.5646E-03  2.6669E-03  -74.076
     9    1    0.0847    0.0000    0.1167   0.02823  5.4256E-04 -1.9323E-03  2.0070E-03  -74.316
    10    1    0.1129    0.0000    0.1167   0.02823  3.3828E-04 -1.2224E-03  1.2683E-03  -74.531
    11    1    0.1412    0.0000    0.1167   0.02823  1.1927E-04 -4.3673E-04  4.5272E-04  -74.726
    12    2   -0.3713    0.0000    0.1167   0.03324  1.3941E-04 -4.7425E-04  4.9432E-04  -73.619
    13    2   -0.3381    0.0000    0.1167   0.03324  3.9509E-04 -1.3230E-03  1.3807E-03  -73.372
    14    2   -0.3048    0.0000    0.1167   0.03324  6.3027E-04 -2.0734E-03  2.1671E-03  -73.092
    15    2   -0.2716    0.0000    0.1167   0.03324  8.4183E-04 -2.7144E-03  2.8419E-03  -72.769
    16    2   -0.2384    0.0000    0.1167   0.03324  1.0230E-03 -3.2227E-03  3.3811E-03  -72.389
    17    2   -0.2051    0.0000    0.1167   0.03324  1.1673E-03 -3.5768E-03  3.7625E-03  -71.925
    18    2   -0.1719    0.0000    0.1167   0.03324  1.2695E-03 -3.7567E-03  3.9654E-03  -71.329


                               ---------- POWER BUDGET ---------
                               INPUT POWER   =  6.6150E-04 Watts
                               RADIATED POWER=  6.3630E-04 Watts
                               STRUCTURE LOSS=  2.5205E-05 Watts
                               NETWORK LOSS  =  0.0000E+00 Watts
                               EFFICIENCY    =   96.19 Percent


                             ---------- RADIATION PATTERNS -----------

 ---- ANGLES -----     ----- POWER GAINS -----       ---- POLARIZATION ----   ---- E(THETA) ----    ----- E(PHI) ------
  THETA      PHI       VERTC    HORIZ    TOTAL       AXIAL      TILT  SENSE   MAGNITUDE    PHASE    MAGNITUDE     PHASE
 DEGREES   DEGREES        DB       DB       DB       RATIO   DEGREES            VOLTS/M   DEGREES     VOLTS/M   DEGREES
   90.00      0.00   -999.99  -999.99  -999.99      0.0000      0.00         2.2223E-12    -22.84  0.0000E+00      0.00
   90.00      1.00   -999.99  -999.99  -999.99      0.0000      0.00         2.2222E-12    -22.83  3.3240E-14   -127.63
   90.00      2.00   -999.99  -999.99  -999.99      0.0000      0.00         2.2218E-12    -22.82  6.6486E-14   -127.61
   90.00      3.00   -999.99  -999.99  -999.99      0.0000      0.00         2.2212E-12    -22.79  9.9753E-14   -127.58
   90.00      4.00   -999.99  -999.99  -999.99      0.0000      0.00         2.2203E-12    -22.74  1.3304E-13   -127.54
   90.00      5.00   -999.99  -999.99  -999.99      0.0000      0.00         2.2192E-12    -22.69  1.6637E-13   -127.48
   90.00      6.00   -999.99  -999.99  -999.99      0.0000      0.00         2.2178E-12    -22.62  1.9974E-13   -127.42
   90.00      7.00   -999.99  -999.99  -999.99      0.0000      0.00         2.2161E-12    -22.55  2.3317E-13   -127.34
   90.00      8.00   -999.99  -999.99  -999.99      0.0000      0.00         2.2142E-12    -22.46  2.6665E-13   -127.25
   90.00      9.00   -999.99  -999.99  -999.99      0.0000      0.00         2.2120E-12    -22.35  3.0022E-13   -127.15
   90.00     10.00   -999.99  -999.99  -999.99      0.0000      0.00         2.2095E-12    -22.24  3.3385E-13   -127.03
   90.00     11.00   -999.99  -999.99  -999.99      0.0000      0.00         2.2067E-12    -22.12  3.6756E-13   -126.91
   90.00     12.00   -999.99  -999.99  -999.99      0.0000      0.00         2.2036E-12    -21.98  4.0138E-13   -126.77
   90.00     13.00   -999.99  -999.99  -999.99      0.0000      0.00         2.2002E-12    -21.83  4.3527E-13   -126.62
   90.00     14.00   -999.99  -999.99  -999.99      0.0000      0.00         2.1964E-12    -21.67  4.6930E-13   -126.46
   90.00     15.00   -999.99  -999.99  -999.99      0.0000      0.00         2.1924E-12    -21.50  5.0341E-13   -126.29
   90.00     16.00   -999.99  -999.99  -999.99      0.0000      0.00         2.1880E-12    -21.31  5.3761E-13   -126.10
   90.00     17.00   -999.99  -999.99  -999.99      0.0000      0.00         2.1832E-12    -21.11  5.7196E-13   -125.91
   90.00     18.00   -999.99  -999.99  -999.99      0.0000      0.00         2.1780E-12    -20.91  6.0645E-13   -125.70
   90.00     19.00   -999.99  -999.99  -999.99      0.0000      0.00         2.1724E-12    -20.69  6.4100E-13   -125.48
   90.00     20.00   -999.99  -999.99  -999.99      0.0000      0.00         2.1665E-12    -20.46  6.7574E-13   -125.25
   90.00     21.00   -999.99  -999.99  -999.99      0.0000      0.00         2.1601E-12    -20.22  7.1052E-13   -125.01
   90.00     22.00   -999.99  -999.99  -999.99      0.0000      0.00         2.1533E-12    -19.96  7.4548E-13   -124.75
   90.00     23.00   -999.99  -999.99  -999.99      0.0000      0.00         2.1460E-12    -19.70  7.8060E-13   -124.49
   90.00     24.00   -999.99  -999.99  -999.99      0.0000      0.00         2.1382E-12    -19.42  8.1576E-13   -124.21
   90.00     25.00   -999.99  -999.99  -999.99      0.0000      0.00         2.1300E-12    -19.13  8.5112E-13   -123.93
   90.00     26.00   -999.99  -999.99  -999.99      0.0000      0.00         2.1212E-12    -18.84  8.8660E-13   -123.63
   90.00     27.00   -999.99  -999.99  -999.99      0.0000      0.00         2.1120E-12    -18.53  9.2212E-13   -123.32
   90.00     28.00   -999.99  -999.99  -999.99      0.0000      0.00         2.1021E-12    -18.21  9.5778E-13   -123.00
   90.00     29.00   -999.99  -999.99  -999.99      0.0000      0.00         2.0917E-12    -17.88  9.9357E-13   -122.67
   90.00     30.00   -999.99  -999.99  -999.99      0.0000      0.00         2.0808E-12    -17.54  1.0294E-12   -122.33
   90.00     31.00   -999.99  -999.99  -999.99      0.0000      0.00         2.0692E-12    -17.18  1.0654E-12   -121.97
   90.00     32.00   -999.99  -999.99  -999.99      0.0000      0.00         2.0570E-12    -16.82  1.1014E-12   -121.61
   90.00     33.00   -999.99  -999.99  -999.99      0.0000      0.00         2.0441E-12    -16.45  1.1376E-12   -121.24
   90.00     34.00   -999.99  -999.99  -999.99      0.0000      0.00         2.0306E-12    -16.06  1.1737E-12   -120.86
   90.00     35.00   -999.99  -999.99  -999.99      0.0000      0.00         2.0164E-12    -15.67  1.2099E-12   -120.46
   90.00     36.00   -999.99  -999.99  -999.99      0.0000      0.00         2.0015E-12    -15.27  1.2461E-12   -120.06
   90.00     37.00   -999.99  -999.99  -999.99      0.0000      0.00         1.9859E-12    -14.85  1.2824E-12   -119.64
   90.00     38.00   -999.99  -999.99  -999.99      0.0000      0.00         1.9696E-12    -14.43  1.3186E-12   -119.22
   90.00     39.00   -999.99  -999.99  -999.99      0.0000      0.00         1.9525E-12    -14.00  1.3549E-12   -118.79
   90.00     40.00   -999.99  -999.99  -999.99      0.0000      0.00         1.9346E-12    -13.55  1.3911E-12   -118.35
   90.00     41.00   -999.99  -999.99  -999.99      0.0000      0.00         1.9160E-12    -13.10  1.4272E-12   -117.89
   90.00     42.00   -999.99  -999.99  -999.99      0.0000      0.00         1.8965E-12    -12.64  1.4633E-12   -117.43
   90.00     43.00   -999.99  -999.99  -999.99      0.0000      0.00         1.8762E-12    -12.17  1.4993E-12   -116.96
   90.00     44.00   -999.99  -999.99  -999.99      0.0000      0.00         1.8551E-12    -11.68  1.5352E-12   -116.48
   90.00     45.00   -999.99  -999.99  -999.99      0.0000      0.00         1.8331E-12    -11.20  1.5709E-12   -115.99
   90.00     46.00   -999.99  -999.99  -999.99      0.0000      0.00         1.8103E-12    -10.70  1.6064E-12   -115.49
   90.00     47.00   -999.99  -999.99  -999.99      0.0000      0.00         1.7866E-12    -10.19  1.6418E-12   -114.98
   90.00     48.00   -999.99  -999.99  -999.99      0.0000      0.00         1.7620E-12     -9.67  1.6771E-12   -114.47
   90.00     49.00   -999.99  -999.99  -999.99      0.0000      0.00         1.7366E-12     -9.15  1.7119E-12   -113.94
   90.00     50.00   -999.99  -999.99  -999.99      0.0000      0.00         1.7102E-12     -8.62  1.7465E-12   -113.41
   90.00     51.00   -999.99  -999.99  -999.99      0.0000      0.00         1.6829E-12     -8.08  1.7809E-12   -112.87
   90.00     52.00   -999.99  -999.99  -999.99      0.0000      0.00         1.6547E-12     -7.53  1.8149E-12   -112.32
   90.00     53.00   -999.99  -999.99  -999.99      0.0000      0.00         1.6256E-12     -6.97  1.8486E-12   -111.76
   90.00     54.00   -999.99  -999.99  -999.99      0.0000      0.00         1.5955E-12     -6.41  1.8819E-12   -111.20
   90.00     55.00   -999.99  -999.99  -999.99      0.0000      0.00         1.5646E-12     -5.84  1.9147E-12   -110.63
   90.00     56.00   -999.99  -999.99  -999.99      0.0000      0.00         1.5327E-12     -5.26  1.9471E-12   -110.05
   90.00     57.00   -999.99  -999.99  -999.99      0.0000      0.00         1.4998E-12     -4.67  1.9791E-12   -109.47
   90.00     58.00   -999.99  -999.99  -999.99      0.0000      0.00         1.4661E-12     -4.08  2.0105E-12   -108.87
   90.00     59.00   -999.99  -999.99  -999.99      0.0000      0.00         1.4314E-12     -3.48  2.0414E-12   -108.27
   90.00     60.00   -999.99  -999.99  -999.99      0.0000      0.00         1.3958E-12     -2.87  2.0717E-12   -107.66
   90.00     61.00   -999.99  -999.99  -999.99      0.0000      0.00         1.3593E-12     -2.26  2.1014E-12   -107.05
   90.00     62.00   -999.99  -999.99  -999.99      0.0000      0.00         1.3219E-12     -1.64  2.1305E-12   -106.43
   90.00     63.00   -999.99  -999.99  -999.99      0.0000      0.00         1.2836E-12     -1.02  2.1589E-12   -105.81
   90.00     64.00   -999.99  -999.99  -999.99      0.0000      0.00         1.2445E-12     -0.39  2.1865E-12   -105.18
   90.00     65.00   -999.99  -999.99  -999.99      0.0000      0.00         1.2045E-12      0.25  2.2135E-12   -104.54
   90.00     66.00   -999.99  -999.99  -999.99      0.0000      0.00         1.1636E-12      0.89  2.2396E-12   -103.90
   90.00     67.00   -999.99  -999.99  -999.99      0.0000      0.00         1.1220E-12      1.54  2.2650E-12   -103.25
   90.00     68.00   -999.99  -999.99  -999.99      0.0000      0.00         1.0795E-12      2.19  2.2895E-12   -102.60
   90.00     69.00   -999.99  -999.99  -999.99      0.0000      0.00         1.0362E-12      2.85  2.3132E-12   -101.94
   90.00     70.00   -999.99  -999.99  -999.99      0.0000      0.00         9.9218E-13      3.51  2.3360E-12   -101.28
   90.00     71.00   -999.99  -999.99  -999.99      0.0000      0.00         9.4742E-13      4.17  2.3578E-12   -100.62
   90.00     72.00   -999.99  -999.99  -999.99      0.0000      0.00         9.0194E-13      4.84  2.3787E-12    -99.95
   90.00     73.00   -999.99  -999.99  -999.99      0.0000      0.00         8.5578E-13      5.52  2.3986E-12    -99.27
   90.00     74.00   -999.99  -999.99  -999.99      0.0000      0.00         8.0897E-13      6.20  2.4176E-12    -98.60
   90.00     75.00   -999.99  -999.99  -999.99      0.0000      0.00         7.6154E-13      6.88  2.4354E-12    -97.92
   90.00     76.00   -999.99  -999.99  -999.99      0.0000      0.00         7.1351E-13      7.56  2.4523E-12    -97.23
   90.00     77.00   -999.99  -999.99  -999.99      0.0000      0.00         6.6493E-13      8.25  2.4680E-12    -96.54
   90.00     78.00   -999.99  -999.99  -999.99      0.0000      0.00         6.1582E-13      8.94  2.4827E-12    -95.85
   90.00     79.00   -999.99  -999.99  -999.99      0.0000      0.00         5.6623E-13      9.63  2.4962E-12    -95.16
   90.00     80.00   -999.99  -999.99  -999.99      0.0000      0.00         5.1619E-13     10.33  2.5086E-12    -94.46
   90.00     81.00   -999.99  -999.99  -999.99      0.0000      0.00         4.6574E-13     11.03  2.5199E-12    -93.76
   90.00     82.00   -999.99  -999.99  -999.99      0.0000      0.00         4.1493E-13     11.73  2.5299E-12    -93.06
   90.00     83.00   -999.99  -999.99  -999.99      0.0000      0.00         3.6378E-13     12.43  2.5388E-12    -92.36
   90.00     84.00   -999.99  -999.99  -999.99      0.0000      0.00         3.1234E-13     13.14  2.5465E-12    -91.66
   90.00     85.00   -999.99  -999.99  -999.99      0.0000      0.00         2.6065E-13     13.84  2.5530E-12    -90.95
   90.00     86.00   -999.99  -999.99  -999.99      0.0000      0.00         2.0876E-13     14.55  2.5582E-12    -90.24
   90.00     87.00   -999.99  -999.99  -999.99      0.0000      0.00         1.5670E-13     15.26  2.5623E-12    -89.53
   90.00     88.00   -999.99  -999.99  -999.99      0.0000      0.00         1.0453E-13     15.97  2.5650E-12    -88.82
   90.00     89.00   -999.99  -999.99  -999.99      0.0000      0.00         5.2280E-14     16.68  2.5666E-12    -88.11
   90.00     90.00   -999.99  -999.99  -999.99      0.0000      0.00         1.5287E-23   -162.61  2.5669E-12    -87.40
   90.00     91.00   -999.99  -999.99  -999.99      0.0000      0.00         5.2268E-14   -161.90  2.5660E-12    -86.69
   90.00     92.00   -999.99  -999.99  -999.99      0.0000      0.00         1.0448E-13   -161.19  2.5639E-12    -85.98
   90.00     93.00   -999.99  -999.99  -999.99      0.0000      0.00         1.5659E-13   -160.48  2.5605E-12    -85.27
   90.00     94.00   -999.99  -999.99  -999.99      0.0000      0.00         2.0856E-13   -159.77  2.5558E-12    -84.57
   90.00     95.00   -999.99  -999.99  -999.99      0.0000      0.00         2.6034E-13   -159.06  2.5500E-12    -83.86
   90.00     96.00   -999.99  -999.99  -999.99      0.0000      0.00         3.1190E-13   -158.36  2.5429E-12    -83.15
   90.00     97.00   -999.99  -999.99  -999.99      0.0000      0.00         3.6318E-13   -157.65  2.5347E-12    -82.44
   90.00     98.00   -999.99  -999.99  -999.99      0.0000      0.00         4.1415E-13   -156.95  2.5252E-12    -81.74
   90.00     99.00   -999.99  -999.99  -999.99      0.0000      0.00         4.6476E-13   -156.24  2.5146E-12    -81.03
   90.00    100.00   -999.99  -999.99  -999.99      0.0000      0.00         5.1498E-13   -155.54  2.5027E-12    -80.33
   90.00    101.00   -999.99  -999.99  -999.99      0.0000      0.00         5.6477E-13   -154.84  2.4898E-12    -79.64
   90.00    102.00   -999.99  -999.99  -999.99      0.0000      0.00         6.1409E-13   -154.14  2.4758E-12    -78.94
   90.00    103.00   -999.99  -999.99  -999.99      0.0000      0.00         6.6290E-13   -153.45  2.4606E-12    -78.24
   90.00    104.00   -999.99  -999.99  -999.99      0.0000      0.00         7.1117E-13   -152.76  2.4442E-12    -77.55
   90.00    105.00   -999.99  -999.99  -999.99      0.0000      0.00         7.5886E-13   -152.07  2.4269E-12    -76.86
   90.00    106.00   -999.99  -999.99  -999.99      0.0000      0.00         8.0594E-13   -151.38  2.4085E-12    -76.18
   90.00    107.00   -999.99  -999.99  -999.99      0.0000      0.00         8.5238E-13   -150.70  2.3892E-12    -75.49
   90.00    108.00   -999.99  -999.99  -999.99      0.0000      0.00         8.9815E-13   -150.02  2.3688E-12    -74.82
   90.00    109.00   -999.99  -999.99  -999.99      0.0000      0.00         9.4321E-13   -149.35  2.3474E-12    -74.14
   90.00    110.00   -999.99  -999.99  -999.99      0.0000      0.00         9.8755E-13   -148.68  2.3250E-12    -73.47
   90.00    111.00   -999.99  -999.99  -999.99      0.0000      0.00         1.0311E-12   -148.01  2.3019E-12    -72.80
   90.00    112.00   -999.99  -999.99  -999.99      0.0000      0.00         1.0739E-12   -147.35  2.2778E-12    -72.14
   90.00    113.00   -999.99  -999.99  -999.99      0.0000      0.00         1.1159E-12   -146.69  2.2529E-12    -71.48
   90.00    114.00   -999.99  -999.99  -999.99      0.0000      0.00         1.1571E-12   -146.03  2.2272E-12    -70.83
   90.00    115.00   -999.99  -999.99  -999.99      0.0000      0.00         1.1975E-12   -145.39  2.2006E-12    -70.18
   90.00    116.00   -999.99  -999.99  -999.99      0.0000      0.00         1.2370E-12   -144.74  2.1733E-12    -69.53
   90.00    117.00   -999.99  -999.99  -999.99      0.0000      0.00         1.2756E-12   -144.11  2.1453E-12    -68.90
   90.00    118.00   -999.99  -999.99  -999.99      0.0000      0.00         1.3133E-12   -143.47  2.1166E-12    -68.27
   90.00    119.00   -999.99  -999.99  -999.99      0.0000      0.00         1.3502E-12   -142.85  2.0873E-12    -67.64
   90.00    120.00   -999.99  -999.99  -999.99      0.0000      0.00         1.3861E-12   -142.23  2.0574E-12    -67.02
   90.00    121.00   -999.99  -999.99  -999.99      0.0000      0.00         1.4211E-12   -141.62  2.0268E-12    -66.40
   90.00    122.00   -999.99  -999.99  -999.99      0.0000      0.00         1.4552E-12   -141.01  1.9956E-12    -65.80
   90.00    123.00   -999.99  -999.99  -999.99      0.0000      0.00         1.4884E-12   -140.41  1.9640E-12    -65.20
   90.00    124.00   -999.99  -999.99  -999.99      0.0000      0.00         1.5206E-12   -139.81  1.9319E-12    -64.60
   90.00    125.00   -999.99  -999.99  -999.99      0.0000      0.00         1.5519E-12   -139.23  1.8992E-12    -64.02
   90.00    126.00   -999.99  -999.99  -999.99      0.0000      0.00         1.5823E-12   -138.65  1.8662E-12    -63.44
   90.00    127.00   -999.99  -999.99  -999.99      0.0000      0.00         1.6117E-12   -138.07  1.8329E-12    -62.87
   90.00    128.00   -999.99  -999.99  -999.99      0.0000      0.00         1.6403E-12   -137.51  1.7990E-12    -62.30
   90.00    129.00   -999.99  -999.99  -999.99      0.0000      0.00         1.6679E-12   -136.95  1.7649E-12    -61.74
   90.00    130.00   -999.99  -999.99  -999.99      0.0000      0.00         1.6945E-12   -136.40  1.7306E-12    -61.20
   90.00    131.00   -999.99  -999.99  -999.99      0.0000      0.00         1.7203E-12   -135.86  1.6959E-12    -60.65
   90.00    132.00   -999.99  -999.99  -999.99      0.0000      0.00         1.7452E-12   -135.33  1.6609E-12    -60.12
   90.00    133.00   -999.99  -999.99  -999.99      0.0000      0.00         1.7691E-12   -134.80  1.6257E-12    -59.59
   90.00    134.00   -999.99  -999.99  -999.99      0.0000      0.00         1.7922E-12   -134.29  1.5904E-12    -59.08
   90.00    135.00   -999.99  -999.99  -999.99      0.0000      0.00         1.8144E-12   -133.78  1.5548E-12    -58.57
   90.00    136.00   -999.99  -999.99  -999.99      0.0000      0.00         1.8358E-12   -133.28  1.5192E-12    -58.07
   90.00    137.00   -999.99  -999.99  -999.99      0.0000      0.00         1.8563E-12   -132.79  1.4834E-12    -57.58
   90.00    138.00   -999.99  -999.99  -999.99      0.0000      0.00         1.8760E-12   -132.31  1.4475E-12    -57.10
   90.00    139.00   -999.99  -999.99  -999.99      0.0000      0.00         1.8949E-12   -131.84  1.4115E-12    -56.63
   90.00    140.00   -999.99  -999.99  -999.99      0.0000      0.00         1.9129E-12   -131.37  1.3755E-12    -56.17
   90.00    141.00   -999.99  -999.99  -999.99      0.0000      0.00         1.9302E-12   -130.92  1.3394E-12    -55.71
   90.00    142.00   -999.99  -999.99  -999.99      0.0000      0.00         1.9468E-12   -130.48  1.3034E-12    -55.27
   90.00    143.00   -999.99  -999.99  -999.99      0.0000      0.00         1.9625E-12   -130.04  1.2673E-12    -54.84
   90.00    144.00   -999.99  -999.99  -999.99      0.0000      0.00         1.9776E-12   -129.62  1.2312E-12    -54.41
   90.00    145.00   -999.99  -999.99  -999.99      0.0000      0.00         1.9919E-12   -129.21  1.1952E-12    -54.00
   90.00    146.00   -999.99  -999.99  -999.99      0.0000      0.00         2.0056E-12   -128.80  1.1592E-12    -53.59
   90.00    147.00   -999.99  -999.99  -999.99      0.0000      0.00         2.0186E-12   -128.41  1.1233E-12    -53.20
   90.00    148.00   -999.99  -999.99  -999.99      0.0000      0.00         2.0309E-12   -128.03  1.0875E-12    -52.82
   90.00    149.00   -999.99  -999.99  -999.99      0.0000      0.00         2.0426E-12   -127.66  1.0517E-12    -52.45
   90.00    150.00   -999.99  -999.99  -999.99      0.0000      0.00         2.0537E-12   -127.30  1.0160E-12    -52.09
   90.00    151.00   -999.99  -999.99  -999.99      0.0000      0.00         2.0642E-12   -126.95  9.8053E-13    -51.74
   90.00    152.00   -999.99  -999.99  -999.99      0.0000      0.00         2.0741E-12   -126.61  9.4507E-13    -51.40
   90.00    153.00   -999.99  -999.99  -999.99      0.0000      0.00         2.0835E-12   -126.28  9.0970E-13    -51.07
   90.00    154.00   -999.99  -999.99  -999.99      0.0000      0.00         2.0923E-12   -125.96  8.7446E-13    -50.75
   90.00    155.00   -999.99  -999.99  -999.99      0.0000      0.00         2.1007E-12   -125.65  8.3944E-13    -50.44
   90.00    156.00   -999.99  -999.99  -999.99      0.0000      0.00         2.1085E-12   -125.36  8.0447E-13    -50.15
   90.00    157.00   -999.99  -999.99  -999.99      0.0000      0.00         2.1159E-12   -125.08  7.6964E-13    -49.87
   90.00    158.00   -999.99  -999.99  -999.99      0.0000      0.00         2.1228E-12   -124.80  7.3495E-13    -49.60
   90.00    159.00   -999.99  -999.99  -999.99      0.0000      0.00         2.1292E-12   -124.54  7.0041E-13    -49.34
   90.00    160.00   -999.99  -999.99  -999.99      0.0000      0.00         2.1352E-12   -124.29  6.6597E-13    -49.08
   90.00    161.00   -999.99  -999.99  -999.99      0.0000      0.00         2.1409E-12   -124.06  6.3173E-13    -48.85
   90.00    162.00   -999.99  -999.99  -999.99      0.0000      0.00         2.1461E-12   -123.83  5.9751E-13    -48.62
   90.00    163.00   -999.99  -999.99  -999.99      0.0000      0.00         2.1510E-12   -123.62  5.6353E-13    -48.41
   90.00    164.00   -999.99  -999.99  -999.99      0.0000      0.00         2.1554E-12   -123.42  5.2963E-13    -48.21
   90.00    165.00   -999.99  -999.99  -999.99      0.0000      0.00         2.1596E-12   -123.23  4.9590E-13    -48.02
   90.00    166.00   -999.99  -999.99  -999.99      0.0000      0.00         2.1634E-12   -123.05  4.6221E-13    -47.84
   90.00    167.00   -999.99  -999.99  -999.99      0.0000      0.00         2.1669E-12   -122.88  4.2870E-13    -47.67
   90.00    168.00   -999.99  -999.99  -999.99      0.0000      0.00         2.1701E-12   -122.73  3.9527E-13    -47.52
   90.00    169.00   -999.99  -999.99  -999.99      0.0000      0.00         2.1730E-12   -122.59  3.6195E-13    -47.38
   90.00    170.00   -999.99  -999.99  -999.99      0.0000      0.00         2.1756E-12   -122.46  3.2871E-13    -47.25
   90.00    171.00   -999.99  -999.99  -999.99      0.0000      0.00         2.1779E-12   -122.34  2.9560E-13    -47.13
   90.00    172.00   -999.99  -999.99  -999.99      0.0000      0.00         2.1800E-12   -122.23  2.6254E-13    -47.03
   90.00    173.00   -999.99  -999.99  -999.99      0.0000      0.00         2.1818E-12   -122.14  2.2956E-13    -46.93
   90.00    174.00   -999.99  -999.99  -999.99      0.0000      0.00         2.1833E-12   -122.06  1.9664E-13    -46.85
   90.00    175.00   -999.99  -999.99  -999.99      0.0000      0.00         2.1846E-12   -121.99  1.6378E-13    -46.79
   90.00    176.00   -999.99  -999.99  -999.99      0.0000      0.00         2.1857E-12   -121.94  1.3097E-13    -46.73
   90.00    177.00   -999.99  -999.99  -999.99      0.0000      0.00         2.1865E-12   -121.89  9.8193E-14    -46.68
   90.00    178.00   -999.99  -999.99  -999.99      0.0000      0.00         2.1871E-12   -121.86  6.5444E-14    -46.66
   90.00    179.00   -999.99  -999.99  -999.99      0.0000      0.00         2.1874E-12   -121.84  3.2718E-14    -46.63
   90.00    180.00   -999.99  -999.99  -999.99      0.0000      0.00         2.1875E-12   -121.84  1.9133E-23    133.37
   90.00    181.00   -999.99  -999.99  -999.99      0.0000      0.00         2.1874E-12   -121.84  3.2718E-14    133.36
   90.00    182.00   -999.99  -999.99  -999.99      0.0000      0.00         2.1871E-12   -121.86  6.5446E-14    133.35
   90.00    183.00   -999.99  -999.99  -999.99      0.0000      0.00         2.1865E-12   -121.89  9.8194E-14    133.31
   90.00    184.00   -999.99  -999.99  -999.99      0.0000      0.00         2.1857E-12   -121.94  1.3097E-13    133.27
   90.00    185.00   -999.99  -999.99  -999.99      0.0000      0.00         2.1846E-12   -121.99  1.6378E-13    133.22
   90.00    186.00   -999.99  -999.99  -999.99      0.0000      0.00         2.1833E-12   -122.06  1.9664E-13    133.15
   90.00    187.00   -999.99  -999.99  -999.99      0.0000      0.00         2.1818E-12   -122.14  2.2955E-13    133.07
   90.00    188.00   -999.99  -999.99  -999.99      0.0000      0.00         2.1800E-12   -122.23  2.6254E-13    132.97
   90.00    189.00   -999.99  -999.99  -999.99      0.0000      0.00         2.1779E-12   -122.34  2.9560E-13    132.87
   90.00    190.00   -999.99  -999.99  -999.99      0.0000      0.00         2.1756E-12   -122.46  3.2873E-13    132.75
   90.00    191.00   -999.99  -999.99  -999.99      0.0000      0.00         2.1730E-12   -122.59  3.6193E-13    132.62
   90.00    192.00   -999.99  -999.99  -999.99      0.0000      0.00         2.1701E-12   -122.73  3.9527E-13    132.48
   90.00    193.00   -999.99  -999.99  -999.99      0.0000      0.00         2.1669E-12   -122.88  4.2868E-13    132.33
   90.00    194.00   -999.99  -999.99  -999.99      0.0000      0.00         2.1634E-12   -123.05  4.6223E-13    132.16
   90.00    195.00   -999.99  -999.99  -999.99      0.0000      0.00         2.1596E-12   -123.23  4.9585E-13    131.99
   90.00    196.00   -999.99  -999.99  -999.99      0.0000      0.00         2.1554E-12   -123.42  5.2962E-13    131.79
   90.00    197.00   -999.99  -999.99  -999.99      0.0000      0.00         2.1510E-12   -123.62  5.6354E-13    131.59
   90.00    198.00   -999.99  -999.99  -999.99      0.0000      0.00         2.1461E-12   -123.83  5.9756E-13    131.38
   90.00    199.00   -999.99  -999.99  -999.99      0.0000      0.00         2.1409E-12   -124.06  6.3171E-13    131.15
   90.00    200.00   -999.99  -999.99  -999.99      0.0000      0.00         2.1352E-12   -124.29  6.6601E-13    130.91
   90.00    201.00   -999.99  -999.99  -999.99      0.0000      0.00         2.1292E-12   -124.54  7.0041E-13    130.66
   90.00    202.00   -999.99  -999.99  -999.99      0.0000      0.00         2.1228E-12   -124.80  7.3500E-13    130.41
   90.00    203.00   -999.99  -999.99  -999.99      0.0000      0.00         2.1159E-12   -125.08  7.6966E-13    130.13
   90.00    204.00   -999.99  -999.99  -999.99      0.0000      0.00         2.1085E-12   -125.36  8.0442E-13    129.85
   90.00    205.00   -999.99  -999.99  -999.99      0.0000      0.00         2.1007E-12   -125.65  8.3944E-13    129.56
   90.00    206.00   -999.99  -999.99  -999.99      0.0000      0.00         2.0923E-12   -125.96  8.7448E-13    129.25
   90.00    207.00   -999.99  -999.99  -999.99      0.0000      0.00         2.0835E-12   -126.28  9.0976E-13    128.93
   90.00    208.00   -999.99  -999.99  -999.99      0.0000      0.00         2.0741E-12   -126.61  9.4504E-13    128.60
   90.00    209.00   -999.99  -999.99  -999.99      0.0000      0.00         2.0642E-12   -126.95  9.8052E-13    128.26
   90.00    210.00   -999.99  -999.99  -999.99      0.0000      0.00         2.0537E-12   -127.30  1.0160E-12    127.91
   90.00    211.00   -999.99  -999.99  -999.99      0.0000      0.00         2.0426E-12   -127.66  1.0517E-12    127.55
   90.00    212.00   -999.99  -999.99  -999.99      0.0000      0.00         2.0309E-12   -128.03  1.0875E-12    127.18
   90.00    213.00   -999.99  -999.99  -999.99      0.0000      0.00         2.0186E-12   -128.41  1.1233E-12    126.79
   90.00    214.00   -999.99  -999.99  -999.99      0.0000      0.00         2.0056E-12   -128.80  1.1593E-12    126.40
   90.00    215.00   -999.99  -999.99  -999.99      0.0000      0.00         1.9919E-12   -129.21  1.1952E-12    126.00
   90.00    216.00   -999.99  -999.99  -999.99      0.0000      0.00         1.9776E-12   -129.62  1.2312E-12    125.59
   90.00    217.00   -999.99  -999.99  -999.99      0.0000      0.00         1.9625E-12   -130.04  1.2673E-12    125.17
   90.00    218.00   -999.99  -999.99  -999.99      0.0000      0.00         1.9468E-12   -130.48  1.3033E-12    124.73
   90.00    219.00   -999.99  -999.99  -999.99      0.0000      0.00         1.9302E-12   -130.92  1.3394E-12    124.29
   90.00    220.00   -999.99  -999.99  -999.99      0.0000      0.00         1.9129E-12   -131.37  1.3755E-12    123.84
   90.00    221.00   -999.99  -999.99  -999.99      0.0000      0.00         1.8949E-12   -131.84  1.4115E-12    123.37
   90.00    222.00   -999.99  -999.99  -999.99      0.0000      0.00         1.8760E-12   -132.31  1.4474E-12    122.90
   90.00    223.00   -999.99  -999.99  -999.99      0.0000      0.00         1.8563E-12   -132.79  1.4834E-12    122.42
   90.00    224.00   -999.99  -999.99  -999.99      0.0000      0.00         1.8358E-12   -133.28  1.5192E-12    121.93
   90.00    225.00   -999.99  -999.99  -999.99      0.0000      0.00         1.8144E-12   -133.78  1.5549E-12    121.43
   90.00    226.00   -999.99  -999.99  -999.99      0.0000      0.00         1.7922E-12   -134.29  1.5903E-12    120.92
   90.00    227.00   -999.99  -999.99  -999.99      0.0000      0.00         1.7691E-12   -134.80  1.6258E-12    120.41
   90.00    228.00   -999.99  -999.99  -999.99      0.0000      0.00         1.7452E-12   -135.33  1.6609E-12    119.88
   90.00    229.00   -999.99  -999.99  -999.99      0.0000      0.00         1.7203E-12   -135.86  1.6958E-12    119.35
   90.00    230.00   -999.99  -999.99  -999.99      0.0000      0.00         1.6945E-12   -136.40  1.7305E-12    118.80
   90.00    231.00   -999.99  -999.99  -999.99      0.0000      0.00         1.6679E-12   -136.95  1.7649E-12    118.26
   90.00    232.00   -999.99  -999.99  -999.99      0.0000      0.00         1.6403E-12   -137.51  1.7991E-12    117.70
   90.00    233.00   -999.99  -999.99  -999.99      0.0000      0.00         1.6117E-12   -138.07  1.8328E-12    117.14
   90.00    234.00   -999.99  -999.99  -999.99      0.0000      0.00         1.5823E-12   -138.65  1.8662E-12    116.56
   90.00    235.00   -999.99  -999.99  -999.99      0.0000      0.00         1.5519E-12   -139.23  1.8992E-12    115.98
   90.00    236.00   -999.99  -999.99  -999.99      0.0000      0.00         1.5206E-12   -139.81  1.9319E-12    115.40
   90.00    237.00   -999.99  -999.99  -999.99      0.0000      0.00         1.4884E-12   -140.41  1.9640E-12    114.80
   90.00    238.00   -999.99  -999.99  -999.99      0.0000      0.00         1.4552E-12   -141.01  1.9956E-12    114.20
   90.00    239.00   -999.99  -999.99  -999.99      0.0000      0.00         1.4211E-12   -141.62  2.0268E-12    113.59
   90.00    240.00   -999.99  -999.99  -999.99      0.0000      0.00         1.3861E-12   -142.23  2.0573E-12    112.98
   90.00    241.00   -999.99  -999.99  -999.99      0.0000      0.00         1.3502E-12   -142.85  2.0872E-12    112.36
   90.00    242.00   -999.99  -999.99  -999.99      0.0000      0.00         1.3133E-12   -143.47  2.1166E-12    111.73
   90.00    243.00   -999.99  -999.99  -999.99      0.0000      0.00         1.2756E-12   -144.11  2.1453E-12    111.10
   90.00    244.00   -999.99  -999.99  -999.99      0.0000      0.00         1.2370E-12   -144.74  2.1733E-12    110.46
   90.00    245.00   -999.99  -999.99  -999.99      0.0000      0.00         1.1975E-12   -145.39  2.2006E-12    109.82
   90.00    246.00   -999.99  -999.99  -999.99      0.0000      0.00         1.1571E-12   -146.03  2.2271E-12    109.17
   90.00    247.00   -999.99  -999.99  -999.99      0.0000      0.00         1.1159E-12   -146.69  2.2529E-12    108.52
   90.00    248.00   -999.99  -999.99  -999.99      0.0000      0.00         1.0739E-12   -147.35  2.2778E-12    107.87
   90.00    249.00   -999.99  -999.99  -999.99      0.0000      0.00         1.0311E-12   -148.01  2.3019E-12    107.20
   90.00    250.00   -999.99  -999.99  -999.99      0.0000      0.00         9.8755E-13   -148.68  2.3250E-12    106.53
   90.00    251.00   -999.99  -999.99  -999.99      0.0000      0.00         9.4321E-13   -149.35  2.3473E-12    105.86
   90.00    252.00   -999.99  -999.99  -999.99      0.0000      0.00         8.9815E-13   -150.02  2.3687E-12    105.19
   90.00    253.00   -999.99  -999.99  -999.99      0.0000      0.00         8.5238E-13   -150.70  2.3892E-12    104.51
   90.00    254.00   -999.99  -999.99  -999.99      0.0000      0.00         8.0594E-13   -151.38  2.4085E-12    103.82
   90.00    255.00   -999.99  -999.99  -999.99      0.0000      0.00         7.5886E-13   -152.07  2.4269E-12    103.14
   90.00    256.00   -999.99  -999.99  -999.99      0.0000      0.00         7.1117E-13   -152.76  2.4442E-12    102.45
   90.00    257.00   -999.99  -999.99  -999.99      0.0000      0.00         6.6290E-13   -153.45  2.4605E-12    101.76
   90.00    258.00   -999.99  -999.99  -999.99      0.0000      0.00         6.1409E-13   -154.14  2.4757E-12    101.06
   90.00    259.00   -999.99  -999.99  -999.99      0.0000      0.00         5.6477E-13   -154.84  2.4898E-12    100.37
   90.00    260.00   -999.99  -999.99  -999.99      0.0000      0.00         5.1498E-13   -155.54  2.5027E-12     99.67
   90.00    261.00   -999.99  -999.99  -999.99      0.0000      0.00         4.6476E-13   -156.24  2.5146E-12     98.97
   90.00    262.00   -999.99  -999.99  -999.99      0.0000      0.00         4.1415E-13   -156.95  2.5252E-12     98.26
   90.00    263.00   -999.99  -999.99  -999.99      0.0000      0.00         3.6318E-13   -157.65  2.5346E-12     97.56
   90.00    264.00   -999.99  -999.99  -999.99      0.0000      0.00         3.1190E-13   -158.36  2.5430E-12     96.85
   90.00    265.00   -999.99  -999.99  -999.99      0.0000      0.00         2.6034E-13   -159.06  2.5500E-12     96.14
   90.00    266.00   -999.99  -999.99  -999.99      0.0000      0.00         2.0856E-13   -159.77  2.5558E-12     95.43
   90.00    267.00   -999.99  -999.99  -999.99      0.0000      0.00         1.5659E-13   -160.48  2.5604E-12     94.73
   90.00    268.00   -999.99  -999.99  -999.99      0.0000      0.00         1.0448E-13   -161.19  2.5638E-12     94.01
   90.00    269.00   -999.99  -999.99  -999.99      0.0000      0.00         5.2268E-14   -161.90  2.5660E-12     93.30
   90.00    270.00   -999.99  -999.99  -999.99      0.0000      0.00         4.5862E-23     17.39  2.5669E-12     92.60
   90.00    271.00   -999.99  -999.99  -999.99      0.0000      0.00         5.2280E-14     16.68  2.5666E-12     91.88
   90.00    272.00   -999.99  -999.99  -999.99      0.0000      0.00         1.0453E-13     15.97  2.5650E-12     91.18
   90.00    273.00   -999.99  -999.99  -999.99      0.0000      0.00         1.5670E-13     15.26  2.5623E-12     90.47
   90.00    274.00   -999.99  -999.99  -999.99      0.0000      0.00         2.0876E-13     14.55  2.5582E-12     89.76
   90.00    275.00   -999.99  -999.99  -999.99      0.0000      0.00         2.6065E-13     13.84  2.5530E-12     89.05
   90.00    276.00   -999.99  -999.99  -999.99      0.0000      0.00         3.1234E-13     13.14  2.5465E-12     88.35
   90.00    277.00   -999.99  -999.99  -999.99      0.0000      0.00         3.6378E-13     12.43  2.5388E-12     87.64
   90.00    278.00   -999.99  -999.99  -999.99      0.0000      0.00         4.1493E-13     11.73  2.5299E-12     86.94
   90.00    279.00   -999.99  -999.99  -999.99      0.0000      0.00         4.6574E-13     11.03  2.5199E-12     86.24
   90.00    280.00   -999.99  -999.99  -999.99      0.0000      0.00         5.1619E-13     10.33  2.5086E-12     85.54
   90.00    281.00   -999.99  -999.99  -999.99      0.0000      0.00         5.6623E-13      9.63  2.4962E-12     84.84
   90.00    282.00   -999.99  -999.99  -999.99      0.0000      0.00         6.1582E-13      8.94  2.4827E-12     84.15
   90.00    283.00   -999.99  -999.99  -999.99      0.0000      0.00         6.6493E-13      8.25  2.4680E-12     83.45
   90.00    284.00   -999.99  -999.99  -999.99      0.0000      0.00         7.1351E-13      7.56  2.4523E-12     82.77
   90.00    285.00   -999.99  -999.99  -999.99      0.0000      0.00         7.6154E-13      6.88  2.4355E-12     82.08
   90.00    286.00   -999.99  -999.99  -999.99      0.0000      0.00         8.0897E-13      6.20  2.4175E-12     81.40
   90.00    287.00   -999.99  -999.99  -999.99      0.0000      0.00         8.5578E-13      5.52  2.3986E-12     80.73
   90.00    288.00   -999.99  -999.99  -999.99      0.0000      0.00         9.0194E-13      4.84  2.3787E-12     80.05
   90.00    289.00   -999.99  -999.99  -999.99      0.0000      0.00         9.4742E-13      4.17  2.3578E-12     79.38
   90.00    290.00   -999.99  -999.99  -999.99      0.0000      0.00         9.9218E-13      3.51  2.3360E-12     78.71
   90.00    291.00   -999.99  -999.99  -999.99      0.0000      0.00         1.0362E-12      2.85  2.3132E-12     78.05
   90.00    292.00   -999.99  -999.99  -999.99      0.0000      0.00         1.0795E-12      2.19  2.2895E-12     77.40
   90.00    293.00   -999.99  -999.99  -999.99      0.0000      0.00         1.1220E-12      1.54  2.2650E-12     76.75
   90.00    294.00   -999.99  -999.99  -999.99      0.0000      0.00         1.1636E-12      0.89  2.2396E-12     76.10
   90.00    295.00   -999.99  -999.99  -999.99      0.0000      0.00         1.2045E-12      0.25  2.2134E-12     75.46
   90.00    296.00   -999.99  -999.99  -999.99      0.0000      0.00         1.2445E-12     -0.39  2.1865E-12     74.82
   90.00    297.00   -999.99  -999.99  -999.99      0.0000      0.00         1.2836E-12     -1.02  2.1589E-12     74.19
   90.00    298.00   -999.99  -999.99  -999.99      0.0000      0.00         1.3219E-12     -1.64  2.1305E-12     73.57
   90.00    299.00   -999.99  -999.99  -999.99      0.0000      0.00         1.3593E-12     -2.26  2.1014E-12     72.95
   90.00    300.00   -999.99  -999.99  -999.99      0.0000      0.00         1.3958E-12     -2.87  2.0717E-12     72.34
   90.00    301.00   -999.99  -999.99  -999.99      0.0000      0.00         1.4314E-12     -3.48  2.0414E-12     71.73
   90.00    302.00   -999.99  -999.99  -999.99      0.0000      0.00         1.4661E-12     -4.08  2.0105E-12     71.13
   90.00    303.00   -999.99  -999.99  -999.99      0.0000      0.00         1.4998E-12     -4.67  1.9791E-12     70.54
   90.00    304.00   -999.99  -999.99  -999.99      0.0000      0.00         1.5327E-12     -5.26  1.9471E-12     69.95
   90.00    305.00   -999.99  -999.99  -999.99      0.0000      0.00         1.5646E-12     -5.84  1.9147E-12     69.37
   90.00    306.00   -999.99  -999.99  -999.99      0.0000      0.00         1.5955E-12     -6.41  1.8819E-12     68.80
   90.00    307.00   -999.99  -999.99  -999.99      0.0000      0.00         1.6256E-12     -6.97  1.8485E-12     68.24
   90.00    308.00   -999.99  -999.99  -999.99      0.0000      0.00         1.6547E-12     -7.53  1.8149E-12     67.68
   90.00    309.00   -999.99  -999.99  -999.99      0.0000      0.00         1.6829E-12     -8.08  1.7809E-12     67.13
   90.00    310.00   -999.99  -999.99  -999.99      0.0000      0.00         1.7102E-12     -8.62  1.7466E-12     66.59
   90.00    311.00   -999.99  -999.99  -999.99      0.0000      0.00         1.7366E-12     -9.15  1.7119E-12     66.05
   90.00    312.00   -999.99  -999.99  -999.99      0.0000      0.00         1.7620E-12     -9.67  1.6770E-12     65.54
   90.00    313.00   -999.99  -999.99  -999.99      0.0000      0.00         1.7866E-12    -10.19  1.6418E-12     65.02
   90.00    314.00   -999.99  -999.99  -999.99      0.0000      0.00         1.8103E-12    -10.70  1.6065E-12     64.51
   90.00    315.00   -999.99  -999.99  -999.99      0.0000      0.00         1.8331E-12    -11.20  1.5709E-12     64.01
   90.00    316.00   -999.99  -999.99  -999.99      0.0000      0.00         1.8551E-12    -11.68  1.5351E-12     63.52
   90.00    317.00   -999.99  -999.99  -999.99      0.0000      0.00         1.8762E-12    -12.17  1.4993E-12     63.04
   90.00    318.00   -999.99  -999.99  -999.99      0.0000      0.00         1.8965E-12    -12.64  1.4633E-12     62.57
   90.00    319.00   -999.99  -999.99  -999.99      0.0000      0.00         1.9160E-12    -13.10  1.4272E-12     62.11
   90.00    320.00   -999.99  -999.99  -999.99      0.0000      0.00         1.9346E-12    -13.55  1.3911E-12     61.65
   90.00    321.00   -999.99  -999.99  -999.99      0.0000      0.00         1.9525E-12    -14.00  1.3549E-12     61.21
   90.00    322.00   -999.99  -999.99  -999.99      0.0000      0.00         1.9696E-12    -14.43  1.3187E-12     60.78
   90.00    323.00   -999.99  -999.99  -999.99      0.0000      0.00         1.9859E-12    -14.85  1.2824E-12     60.36
   90.00    324.00   -999.99  -999.99  -999.99      0.0000      0.00         2.0015E-12    -15.27  1.2462E-12     59.94
   90.00    325.00   -999.99  -999.99  -999.99      0.0000      0.00         2.0164E-12    -15.67  1.2099E-12     59.54
   90.00    326.00   -999.99  -999.99  -999.99      0.0000      0.00         2.0306E-12    -16.06  1.1737E-12     59.15
   90.00    327.00   -999.99  -999.99  -999.99      0.0000      0.00         2.0441E-12    -16.45  1.1376E-12     58.76
   90.00    328.00   -999.99  -999.99  -999.99      0.0000      0.00         2.0570E-12    -16.82  1.1015E-12     58.39
   90.00    329.00   -999.99  -999.99  -999.99      0.0000      0.00         2.0692E-12    -17.18  1.0654E-12     58.02
   90.00    330.00   -999.99  -999.99  -999.99      0.0000      0.00         2.0808E-12    -17.54  1.0294E-12     57.67
   90.00    331.00   -999.99  -999.99  -999.99      0.0000      0.00         2.0917E-12    -17.88  9.9359E-13     57.33
   90.00    332.00   -999.99  -999.99  -999.99      0.0000      0.00         2.1021E-12    -18.21  9.5783E-13     57.00
   90.00    333.00   -999.99  -999.99  -999.99      0.0000      0.00         2.1120E-12    -18.53  9.2216E-13     56.68
   90.00    334.00   -999.99  -999.99  -999.99      0.0000      0.00         2.1212E-12    -18.84  8.8658E-13     56.37
   90.00    335.00   -999.99  -999.99  -999.99      0.0000      0.00         2.1300E-12    -19.13  8.5115E-13     56.07
   90.00    336.00   -999.99  -999.99  -999.99      0.0000      0.00         2.1382E-12    -19.42  8.1579E-13     55.79
   90.00    337.00   -999.99  -999.99  -999.99      0.0000      0.00         2.1460E-12    -19.70  7.8062E-13     55.51
   90.00    338.00   -999.99  -999.99  -999.99      0.0000      0.00         2.1533E-12    -19.96  7.4551E-13     55.24
   90.00    339.00   -999.99  -999.99  -999.99      0.0000      0.00         2.1601E-12    -20.22  7.1053E-13     55.00
   90.00    340.00   -999.99  -999.99  -999.99      0.0000      0.00         2.1665E-12    -20.46  6.7572E-13     54.75
   90.00    341.00   -999.99  -999.99  -999.99      0.0000      0.00         2.1724E-12    -20.69  6.4101E-13     54.52
   90.00    342.00   -999.99  -999.99  -999.99      0.0000      0.00         2.1780E-12    -20.91  6.0644E-13     54.30
   90.00    343.00   -999.99  -999.99  -999.99      0.0000      0.00         2.1832E-12    -21.11  5.7195E-13     54.09
   90.00    344.00   -999.99  -999.99  -999.99      0.0000      0.00         2.1880E-12    -21.31  5.3763E-13     53.90
   90.00    345.00   -999.99  -999.99  -999.99      0.0000      0.00         2.1924E-12    -21.50  5.0338E-13     53.71
   90.00    346.00   -999.99  -999.99  -999.99      0.0000      0.00         2.1964E-12    -21.67  4.6931E-13     53.54
   90.00    347.00   -999.99  -999.99  -999.99      0.0000      0.00         2.2002E-12    -21.83  4.3527E-13     53.38
   90.00    348.00   -999.99  -999.99  -999.99      0.0000      0.00         2.2036E-12    -21.98  4.0137E-13     53.23
   90.00    349.00   -999.99  -999.99  -999.99      0.0000      0.00         2.2067E-12    -22.12  3.6756E-13     53.09
   90.00    350.00   -999.99  -999.99  -999.99      0.0000      0.00         2.2095E-12    -22.24  3.3386E-13     52.96
   90.00    351.00   -999.99  -999.99  -999.99      0.0000      0.00         2.2120E-12    -22.35  3.0022E-13     52.85
   90.00    352.00   -999.99  -999.99  -999.99      0.0000      0.00         2.2142E-12    -22.46  2.6666E-13     52.75
   90.00    353.00   -999.99  -999.99  -999.99      0.0000      0.00         2.2161E-12    -22.55  2.3318E-13     52.66
   90.00    354.00   -999.99  -999.99  -999.99      0.0000      0.00         2.2178E-12    -22.62  1.9975E-13     52.58
   90.00    355.00   -999.99  -999.99  -999.99      0.0000      0.00         2.2192E-12    -22.69  1.6637E-13     52.52
   90.00    356.00   -999.99  -999.99  -999.99      0.0000      0.00         2.2203E-12    -22.74  1.3304E-13     52.47
   90.00    357.00   -999.99  -999.99  -999.99      0.0000      0.00         2.2212E-12    -22.79  9.9756E-14     52.42
   90.00    358.00   -999.99  -999.99  -999.99      0.0000      0.00         2.2218E-12    -22.82  6.6489E-14     52.39
   90.00    359.00   -999.99  -999.99  -999.99      0.0000      0.00         2.2222E-12    -22.83  3.3240E-14     52.37
   90.00    360.00   -999.99  -999.99  -999.99      0.0000      0.00         2.2223E-12    -22.84  3.8874E-23   -127.63


                               --------- FREQUENCY --------
                                FREQUENCY : 7.5000E+00 MHz
                                WAVELENGTH: 3.9973E+01 Mtr

                        APPROXIMATE INTEGRATION EMPLOYED FOR SEGMENTS 
                        THAT ARE MORE THAN 1.000 WAVELENGTHS APART


                          ------ STRUCTURE IMPEDANCE LOADING ------
  LOCATION        RESISTANCE  INDUCTANCE  CAPACITANCE     IMPEDANCE (OHMS)   CONDUCTIVITY  CIRCUIT
  ITAG FROM THRU     OHMS       HENRYS      FARADS       REAL     IMAGINARY   MHOS/METER      TYPE
     1    1   11                                                              5.8000E+07     WIRE  
     2    1    7                                                              5.8000E+07     WIRE  


                            -------- ANTENNA ENVIRONMENT --------
                            FINITE GROUND - SOMMERFELD SOLUTION
                            RELATIVE DIELECTRIC CONST: 13.000
                            CONDUCTIVITY:  5.000E-03 MHOS/METER
                            COMPLEX DIELECTRIC CONSTANT:  1.3000E+01-1.1984E+01j


                             ---------- MATRIX TIMING ----------
                               FILL: 0 msec  FACTOR: 0 msec


                        --------- ANTENNA INPUT PARAMETERS ---------
  TAG   SEG       VOLTAGE (VOLTS)         CURRENT (AMPS)         IMPEDANCE (OHMS)        ADMITTANCE (MHOS)     POWER
  No:   No:     REAL      IMAGINARY     REAL      IMAGINARY     REAL      IMAGINARY    REAL       IMAGINARY   (WATTS)
    1     1  1.0000E+00  0.0000E+00  6.4338E-04 -2.3610E-03  1.0744E+02  3.9427E+02  6.4338E-04 -2.3610E-03  3.2169E-04


                           -------- CURRENTS AND LOCATION --------
                                  DISTANCES IN WAVELENGTHS

   SEG  TAG    COORDINATES OF SEGM CENTER     SEGM    ------------- CURRENT (AMPS) -------------
   No:  No:       X         Y         Z      LENGTH     REAL      IMAGINARY    MAGN        PHASE
     1    1   -0.1512    0.0000    0.1251   0.03025  6.4338E-04 -2.3610E-03  2.4471E-03  -74.757
     2    1   -0.1210    0.0000    0.1251   0.03025  6.4952E-04 -2.5565E-03  2.6377E-03  -75.745
     3    1   -0.0907    0.0000    0.1251   0.03025  6.3816E-04 -2.6882E-03  2.7629E-03  -76.646
     4    1   -0.0605    0.0000    0.1251   0.03025  6.0969E-04 -2.7098E-03  2.7776E-03  -77.320
     5    1   -0.0302    0.0000    0.1251   0.03025  5.6502E-04 -2.6257E-03  2.6858E-03  -77.856
     6    1   -0.0000    0.0000    0.1251   0.03025  5.0554E-04 -2.4405E-03  2.4923E-03  -78.297
     7    1    0.0302    0.0000    0.1251   0.03025  4.3306E-04 -2.1613E-03  2.2042E-03  -78.670
     8    1    0.0605    0.0000    0.1251   0.03025  3.4973E-04 -1.7977E-03  1.8314E-03  -78.991
     9    1    0.0907    0.0000    0.1251   0.03025  2.5787E-04 -1.3614E-03  1.3856E-03  -79.274
    10    1    0.1210    0.0000    0.1251   0.03025  1.5973E-04 -8.6406E-04  8.7870E-04  -79.527
    11    1    0.1512    0.0000    0.1251   0.03025  5.5894E-05 -3.0921E-04  3.1422E-04  -79.754
    12    2   -0.3978    0.0000    0.1251   0.03561  6.5946E-05 -3.1974E-04  3.2647E-04  -78.346
    13    2   -0.3622    0.0000    0.1251   0.03561  1.8832E-04 -8.8978E-04  9.0949E-04  -78.050
    14    2   -0.3266    0.0000    0.1251   0.03561  3.0231E-04 -1.3877E-03  1.4203E-03  -77.710
    15    2   -0.2910    0.0000    0.1251   0.03561  4.0581E-04 -1.8029E-03  1.8480E-03  -77.315
    16    2   -0.2554    0.0000    0.1251   0.03561  4.9504E-04 -2.1175E-03  2.1746E-03  -76.842
    17    2   -0.2198    0.0000    0.1251   0.03561  5.6641E-04 -2.3153E-03  2.3836E-03  -76.253
    18    2   -0.1842    0.0000    0.1251   0.03561  6.1699E-04 -2.3809E-03  2.4595E-03  -75.472


                               ---------- POWER BUDGET ---------
                               INPUT POWER   =  3.2169E-04 Watts
                               RADIATED POWER=  3.1074E-04 Watts
                               STRUCTURE LOSS=  1.0948E-05 Watts
                               NETWORK LOSS  =  0.0000E+00 Watts
                               EFFICIENCY    =   96.60 Percent


                             ---------- RADIATION PATTERNS -----------

 ---- ANGLES -----     ----- POWER GAINS -----       ---- POLARIZATION ----   ---- E(THETA) ----    ----- E(PHI) ------
  THETA      PHI       VERTC    HORIZ    TOTAL       AXIAL      TILT  SENSE   MAGNITUDE    PHASE    MAGNITUDE     PHASE
 DEGREES   DEGREES        DB       DB       DB       RATIO   DEGREES            VOLTS/M   DEGREES     VOLTS/M   DEGREES
   90.00      0.00   -999.99  -999.99  -999.99      0.0000      0.00         1.4684E-12    -28.90  0.0000E+00      0.00
   90.00      1.00   -999.99  -999.99  -999.99      0.0000      0.00         1.4683E-12    -28.90  2.3245E-14   -133.22
   90.00      2.00   -999.99  -999.99  -999.99      0.0000      0.00         1.4682E-12    -28.88  4.6501E-14   -133.20
   90.00      3.00   -999.99  -999.99  -999.99      0.0000      0.00         1.4679E-12    -28.85  6.9776E-14   -133.17
   90.00      4.00   -999.99  -999.99  -999.99      0.0000      0.00         1.4675E-12    -28.81  9.3072E-14   -133.13
   90.00      5.00   -999.99  -999.99  -999.99      0.0000      0.00         1.4670E-12    -28.75  1.1641E-13   -133.08
   90.00      6.00   -999.99  -999.99  -999.99      0.0000      0.00         1.4664E-12    -28.68  1.3979E-13   -133.01
   90.00      7.00   -999.99  -999.99  -999.99      0.0000      0.00         1.4656E-12    -28.61  1.6321E-13   -132.93
   90.00      8.00   -999.99  -999.99  -999.99      0.0000      0.00         1.4648E-12    -28.51  1.8671E-13   -132.84
   90.00      9.00   -999.99  -999.99  -999.99      0.0000      0.00         1.4638E-12    -28.41  2.1028E-13   -132.74
   90.00     10.00   -999.99  -999.99  -999.99      0.0000      0.00         1.4626E-12    -28.29  2.3390E-13   -132.61
   90.00     11.00   -999.99  -999.99  -999.99      0.0000      0.00         1.4613E-12    -28.17  2.5763E-13   -132.49
   90.00     12.00   -999.99  -999.99  -999.99      0.0000      0.00         1.4599E-12    -28.03  2.8145E-13   -132.35
   90.00     13.00   -999.99  -999.99  -999.99      0.0000      0.00         1.4583E-12    -27.88  3.0534E-13   -132.20
   90.00     14.00   -999.99  -999.99  -999.99      0.0000      0.00         1.4565E-12    -27.71  3.2936E-13   -132.03
   90.00     15.00   -999.99  -999.99  -999.99      0.0000      0.00         1.4546E-12    -27.54  3.5349E-13   -131.86
   90.00     16.00   -999.99  -999.99  -999.99      0.0000      0.00         1.4524E-12    -27.35  3.7774E-13   -131.67
   90.00     17.00   -999.99  -999.99  -999.99      0.0000      0.00         1.4501E-12    -27.15  4.0209E-13   -131.47
   90.00     18.00   -999.99  -999.99  -999.99      0.0000      0.00         1.4475E-12    -26.94  4.2657E-13   -131.26
   90.00     19.00   -999.99  -999.99  -999.99      0.0000      0.00         1.4448E-12    -26.71  4.5121E-13   -131.04
   90.00     20.00   -999.99  -999.99  -999.99      0.0000      0.00         1.4417E-12    -26.48  4.7592E-13   -130.80
   90.00     21.00   -999.99  -999.99  -999.99      0.0000      0.00         1.4385E-12    -26.23  5.0079E-13   -130.55
   90.00     22.00   -999.99  -999.99  -999.99      0.0000      0.00         1.4349E-12    -25.97  5.2581E-13   -130.30
   90.00     23.00   -999.99  -999.99  -999.99      0.0000      0.00         1.4311E-12    -25.70  5.5095E-13   -130.02
   90.00     24.00   -999.99  -999.99  -999.99      0.0000      0.00         1.4271E-12    -25.42  5.7626E-13   -129.74
   90.00     25.00   -999.99  -999.99  -999.99      0.0000      0.00         1.4227E-12    -25.12  6.0169E-13   -129.45
   90.00     26.00   -999.99  -999.99  -999.99      0.0000      0.00         1.4179E-12    -24.82  6.2723E-13   -129.14
   90.00     27.00   -999.99  -999.99  -999.99      0.0000      0.00         1.4129E-12    -24.50  6.5292E-13   -128.83
   90.00     28.00   -999.99  -999.99  -999.99      0.0000      0.00         1.4075E-12    -24.18  6.7877E-13   -128.50
   90.00     29.00   -999.99  -999.99  -999.99      0.0000      0.00         1.4017E-12    -23.84  7.0470E-13   -128.16
   90.00     30.00   -999.99  -999.99  -999.99      0.0000      0.00         1.3956E-12    -23.49  7.3079E-13   -127.81
   90.00     31.00   -999.99  -999.99  -999.99      0.0000      0.00         1.3890E-12    -23.12  7.5699E-13   -127.45
   90.00     32.00   -999.99  -999.99  -999.99      0.0000      0.00         1.3821E-12    -22.75  7.8328E-13   -127.07
   90.00     33.00   -999.99  -999.99  -999.99      0.0000      0.00         1.3747E-12    -22.37  8.0971E-13   -126.69
   90.00     34.00   -999.99  -999.99  -999.99      0.0000      0.00         1.3669E-12    -21.97  8.3620E-13   -126.30
   90.00     35.00   -999.99  -999.99  -999.99      0.0000      0.00         1.3586E-12    -21.57  8.6279E-13   -125.90
   90.00     36.00   -999.99  -999.99  -999.99      0.0000      0.00         1.3498E-12    -21.15  8.8945E-13   -125.48
   90.00     37.00   -999.99  -999.99  -999.99      0.0000      0.00         1.3405E-12    -20.73  9.1618E-13   -125.05
   90.00     38.00   -999.99  -999.99  -999.99      0.0000      0.00         1.3308E-12    -20.29  9.4296E-13   -124.61
   90.00     39.00   -999.99  -999.99  -999.99      0.0000      0.00         1.3205E-12    -19.85  9.6984E-13   -124.17
   90.00     40.00   -999.99  -999.99  -999.99      0.0000      0.00         1.3096E-12    -19.39  9.9665E-13   -123.71
   90.00     41.00   -999.99  -999.99  -999.99      0.0000      0.00         1.2982E-12    -18.92  1.0235E-12   -123.24
   90.00     42.00   -999.99  -999.99  -999.99      0.0000      0.00         1.2863E-12    -18.45  1.0505E-12   -122.77
   90.00     43.00   -999.99  -999.99  -999.99      0.0000      0.00         1.2737E-12    -17.96  1.0773E-12   -122.28
   90.00     44.00   -999.99  -999.99  -999.99      0.0000      0.00         1.2606E-12    -17.46  1.1041E-12   -121.79
   90.00     45.00   -999.99  -999.99  -999.99      0.0000      0.00         1.2469E-12    -16.96  1.1309E-12   -121.28
   90.00     46.00   -999.99  -999.99  -999.99      0.0000      0.00         1.2325E-12    -16.44  1.1576E-12   -120.77
   90.00     47.00   -999.99  -999.99  -999.99      0.0000      0.00         1.2175E-12    -15.92  1.1842E-12   -120.24
   90.00     48.00   -999.99  -999.99  -999.99      0.0000      0.00         1.2019E-12    -15.38  1.2107E-12   -119.71
   90.00     49.00   -999.99  -999.99  -999.99      0.0000      0.00         1.1856E-12    -14.84  1.2370E-12   -119.16
   90.00     50.00   -999.99  -999.99  -999.99      0.0000      0.00         1.1687E-12    -14.29  1.2632E-12   -118.61
   90.00     51.00   -999.99  -999.99  -999.99      0.0000      0.00         1.1511E-12    -13.73  1.2892E-12   -118.05
   90.00     52.00   -999.99  -999.99  -999.99      0.0000      0.00         1.1328E-12    -13.16  1.3150E-12   -117.49
   90.00     53.00   -999.99  -999.99  -999.99      0.0000      0.00         1.1138E-12    -12.58  1.3406E-12   -116.91
   90.00     54.00   -999.99  -999.99  -999.99      0.0000      0.00         1.0942E-12    -12.00  1.3660E-12   -116.32
   90.00     55.00   -999.99  -999.99  -999.99      0.0000      0.00         1.0739E-12    -11.41  1.3910E-12   -115.73
   90.00     56.00   -999.99  -999.99  -999.99      0.0000      0.00         1.0529E-12    -10.81  1.4157E-12   -115.13
   90.00     57.00   -999.99  -999.99  -999.99      0.0000      0.00         1.0312E-12    -10.20  1.4401E-12   -114.52
   90.00     58.00   -999.99  -999.99  -999.99      0.0000      0.00         1.0088E-12     -9.58  1.4642E-12   -113.91
   90.00     59.00   -999.99  -999.99  -999.99      0.0000      0.00         9.8570E-13     -8.96  1.4879E-12   -113.28
   90.00     60.00   -999.99  -999.99  -999.99      0.0000      0.00         9.6194E-13     -8.33  1.5111E-12   -112.65
   90.00     61.00   -999.99  -999.99  -999.99      0.0000      0.00         9.3750E-13     -7.69  1.5340E-12   -112.02
   90.00     62.00   -999.99  -999.99  -999.99      0.0000      0.00         9.1238E-13     -7.05  1.5563E-12   -111.37
   90.00     63.00   -999.99  -999.99  -999.99      0.0000      0.00         8.8660E-13     -6.40  1.5782E-12   -110.72
   90.00     64.00   -999.99  -999.99  -999.99      0.0000      0.00         8.6015E-13     -5.74  1.5995E-12   -110.07
   90.00     65.00   -999.99  -999.99  -999.99      0.0000      0.00         8.3306E-13     -5.08  1.6202E-12   -109.40
   90.00     66.00   -999.99  -999.99  -999.99      0.0000      0.00         8.0533E-13     -4.41  1.6405E-12   -108.74
   90.00     67.00   -999.99  -999.99  -999.99      0.0000      0.00         7.7697E-13     -3.74  1.6601E-12   -108.06
   90.00     68.00   -999.99  -999.99  -999.99      0.0000      0.00         7.4800E-13     -3.06  1.6791E-12   -107.38
   90.00     69.00   -999.99  -999.99  -999.99      0.0000      0.00         7.1843E-13     -2.38  1.6975E-12   -106.70
   90.00     70.00   -999.99  -999.99  -999.99      0.0000      0.00         6.8828E-13     -1.69  1.7151E-12   -106.01
   90.00     71.00   -999.99  -999.99  -999.99      0.0000      0.00         6.5757E-13     -0.99  1.7320E-12   -105.31
   90.00     72.00   -999.99  -999.99  -999.99      0.0000      0.00         6.2632E-13     -0.29  1.7483E-12   -104.62
   90.00     73.00   -999.99  -999.99  -999.99      0.0000      0.00         5.9455E-13      0.41  1.7637E-12   -103.91
   90.00     74.00   -999.99  -999.99  -999.99      0.0000      0.00         5.6227E-13      1.12  1.7784E-12   -103.20
   90.00     75.00   -999.99  -999.99  -999.99      0.0000      0.00         5.2952E-13      1.83  1.7923E-12   -102.49
   90.00     76.00   -999.99  -999.99  -999.99      0.0000      0.00         4.9632E-13      2.54  1.8055E-12   -101.78
   90.00     77.00   -999.99  -999.99  -999.99      0.0000      0.00         4.6269E-13      3.26  1.8177E-12   -101.06
   90.00     78.00   -999.99  -999.99  -999.99      0.0000      0.00         4.2866E-13      3.99  1.8291E-12   -100.34
   90.00     79.00   -999.99  -999.99  -999.99      0.0000      0.00         3.9426E-13      4.71  1.8396E-12    -99.62
   90.00     80.00   -999.99  -999.99  -999.99      0.0000      0.00         3.5952E-13      5.44  1.8492E-12    -98.88
   90.00     81.00   -999.99  -999.99  -999.99      0.0000      0.00         3.2446E-13      6.17  1.8580E-12    -98.15
   90.00     82.00   -999.99  -999.99  -999.99      0.0000      0.00         2.8912E-13      6.90  1.8658E-12    -97.42
   90.00     83.00   -999.99  -999.99  -999.99      0.0000      0.00         2.5352E-13      7.63  1.8727E-12    -96.69
   90.00     84.00   -999.99  -999.99  -999.99      0.0000      0.00         2.1771E-13      8.37  1.8787E-12    -95.95
   90.00     85.00   -999.99  -999.99  -999.99      0.0000      0.00         1.8170E-13      9.11  1.8836E-12    -95.21
   90.00     86.00   -999.99  -999.99  -999.99      0.0000      0.00         1.4554E-13      9.85  1.8877E-12    -94.47
   90.00     87.00   -999.99  -999.99  -999.99      0.0000      0.00         1.0925E-13     10.59  1.8908E-12    -93.74
   90.00     88.00   -999.99  -999.99  -999.99      0.0000      0.00         7.2881E-14     11.33  1.8929E-12    -92.99
   90.00     89.00   -999.99  -999.99  -999.99      0.0000      0.00         3.6451E-14     12.07  1.8940E-12    -92.25
   90.00     90.00   -999.99  -999.99  -999.99      0.0000      0.00         1.0658E-23   -167.18  1.8942E-12    -91.51
   90.00     91.00   -999.99  -999.99  -999.99      0.0000      0.00         3.6439E-14   -166.44  1.8934E-12    -90.77
   90.00     92.00   -999.99  -999.99  -999.99      0.0000      0.00         7.2831E-14   -165.70  1.8916E-12    -90.02
   90.00     93.00   -999.99  -999.99  -999.99      0.0000      0.00         1.0914E-13   -164.96  1.8888E-12    -89.28
   90.00     94.00   -999.99  -999.99  -999.99      0.0000      0.00         1.4534E-13   -164.21  1.8851E-12    -88.54
   90.00     95.00   -999.99  -999.99  -999.99      0.0000      0.00         1.8139E-13   -163.47  1.8804E-12    -87.79
   90.00     96.00   -999.99  -999.99  -999.99      0.0000      0.00         2.1726E-13   -162.73  1.8748E-12    -87.06
   90.00     97.00   -999.99  -999.99  -999.99      0.0000      0.00         2.5292E-13   -161.99  1.8682E-12    -86.32
   90.00     98.00   -999.99  -999.99  -999.99      0.0000      0.00         2.8833E-13   -161.26  1.8607E-12    -85.58
   90.00     99.00   -999.99  -999.99  -999.99      0.0000      0.00         3.2347E-13   -160.52  1.8523E-12    -84.85
   90.00    100.00   -999.99  -999.99  -999.99      0.0000      0.00         3.5830E-13   -159.79  1.8430E-12    -84.11
   90.00    101.00   -999.99  -999.99  -999.99      0.0000      0.00         3.9279E-13   -159.06  1.8327E-12    -83.38
   90.00    102.00   -999.99  -999.99  -999.99      0.0000      0.00         4.2692E-13   -158.33  1.8217E-12    -82.65
   90.00    103.00   -999.99  -999.99  -999.99      0.0000      0.00         4.6065E-13   -157.60  1.8096E-12    -81.92
   90.00    104.00   -999.99  -999.99  -999.99      0.0000      0.00         4.9397E-13   -156.88  1.7969E-12    -81.20
   90.00    105.00   -999.99  -999.99  -999.99      0.0000      0.00         5.2683E-13   -156.16  1.7832E-12    -80.48
   90.00    106.00   -999.99  -999.99  -999.99      0.0000      0.00         5.5922E-13   -155.44  1.7689E-12    -79.76
   90.00    107.00   -999.99  -999.99  -999.99      0.0000      0.00         5.9112E-13   -154.72  1.7536E-12    -79.05
   90.00    108.00   -999.99  -999.99  -999.99      0.0000      0.00         6.2250E-13   -154.01  1.7376E-12    -78.34
   90.00    109.00   -999.99  -999.99  -999.99      0.0000      0.00         6.5334E-13   -153.31  1.7209E-12    -77.63
   90.00    110.00   -999.99  -999.99  -999.99      0.0000      0.00         6.8362E-13   -152.61  1.7035E-12    -76.93
   90.00    111.00   -999.99  -999.99  -999.99      0.0000      0.00         7.1332E-13   -151.91  1.6854E-12    -76.23
   90.00    112.00   -999.99  -999.99  -999.99      0.0000      0.00         7.4242E-13   -151.22  1.6666E-12    -75.54
   90.00    113.00   -999.99  -999.99  -999.99      0.0000      0.00         7.7092E-13   -150.53  1.6472E-12    -74.85
   90.00    114.00   -999.99  -999.99  -999.99      0.0000      0.00         7.9878E-13   -149.85  1.6272E-12    -74.17
   90.00    115.00   -999.99  -999.99  -999.99      0.0000      0.00         8.2601E-13   -149.17  1.6066E-12    -73.50
   90.00    116.00   -999.99  -999.99  -999.99      0.0000      0.00         8.5259E-13   -148.50  1.5854E-12    -72.82
   90.00    117.00   -999.99  -999.99  -999.99      0.0000      0.00         8.7850E-13   -147.83  1.5637E-12    -72.15
   90.00    118.00   -999.99  -999.99  -999.99      0.0000      0.00         9.0374E-13   -147.17  1.5416E-12    -71.49
   90.00    119.00   -999.99  -999.99  -999.99      0.0000      0.00         9.2831E-13   -146.52  1.5189E-12    -70.84
   90.00    120.00   -999.99  -999.99  -999.99      0.0000      0.00         9.5219E-13   -145.87  1.4958E-12    -70.20
   90.00    121.00   -999.99  -999.99  -999.99      0.0000      0.00         9.7538E-13   -145.23  1.4723E-12    -69.55
   90.00    122.00   -999.99  -999.99  -999.99      0.0000      0.00         9.9788E-13   -144.60  1.4484E-12    -68.92
   90.00    123.00   -999.99  -999.99  -999.99      0.0000      0.00         1.0197E-12   -143.97  1.4241E-12    -68.29
   90.00    124.00   -999.99  -999.99  -999.99      0.0000      0.00         1.0408E-12   -143.35  1.3995E-12    -67.67
   90.00    125.00   -999.99  -999.99  -999.99      0.0000      0.00         1.0612E-12   -142.74  1.3745E-12    -67.06
   90.00    126.00   -999.99  -999.99  -999.99      0.0000      0.00         1.0809E-12   -142.13  1.3494E-12    -66.45
   90.00    127.00   -999.99  -999.99  -999.99      0.0000      0.00         1.1000E-12   -141.53  1.3239E-12    -65.86
   90.00    128.00   -999.99  -999.99  -999.99      0.0000      0.00         1.1183E-12   -140.95  1.2982E-12    -65.27
   90.00    129.00   -999.99  -999.99  -999.99      0.0000      0.00         1.1360E-12   -140.36  1.2723E-12    -64.69
   90.00    130.00   -999.99  -999.99  -999.99      0.0000      0.00         1.1530E-12   -139.79  1.2462E-12    -64.12
   90.00    131.00   -999.99  -999.99  -999.99      0.0000      0.00         1.1693E-12   -139.23  1.2200E-12    -63.55
   90.00    132.00   -999.99  -999.99  -999.99      0.0000      0.00         1.1850E-12   -138.67  1.1936E-12    -63.00
   90.00    133.00   -999.99  -999.99  -999.99      0.0000      0.00         1.2000E-12   -138.12  1.1671E-12    -62.45
   90.00    134.00   -999.99  -999.99  -999.99      0.0000      0.00         1.2144E-12   -137.59  1.1406E-12    -61.91
   90.00    135.00   -999.99  -999.99  -999.99      0.0000      0.00         1.2281E-12   -137.06  1.1139E-12    -61.38
   90.00    136.00   -999.99  -999.99  -999.99      0.0000      0.00         1.2413E-12   -136.54  1.0872E-12    -60.86
   90.00    137.00   -999.99  -999.99  -999.99      0.0000      0.00         1.2538E-12   -136.03  1.0604E-12    -60.35
   90.00    138.00   -999.99  -999.99  -999.99      0.0000      0.00         1.2658E-12   -135.53  1.0337E-12    -59.85
   90.00    139.00   -999.99  -999.99  -999.99      0.0000      0.00         1.2771E-12   -135.04  1.0069E-12    -59.36
   90.00    140.00   -999.99  -999.99  -999.99      0.0000      0.00         1.2879E-12   -134.56  9.8019E-13    -58.88
   90.00    141.00   -999.99  -999.99  -999.99      0.0000      0.00         1.2982E-12   -134.09  9.5347E-13    -58.41
   90.00    142.00   -999.99  -999.99  -999.99      0.0000      0.00         1.3079E-12   -133.63  9.2682E-13    -57.95
   90.00    143.00   -999.99  -999.99  -999.99      0.0000      0.00         1.3172E-12   -133.18  9.0023E-13    -57.50
   90.00    144.00   -999.99  -999.99  -999.99      0.0000      0.00         1.3259E-12   -132.74  8.7369E-13    -57.06
   90.00    145.00   -999.99  -999.99  -999.99      0.0000      0.00         1.3341E-12   -132.31  8.4725E-13    -56.63
   90.00    146.00   -999.99  -999.99  -999.99      0.0000      0.00         1.3419E-12   -131.89  8.2089E-13    -56.21
   90.00    147.00   -999.99  -999.99  -999.99      0.0000      0.00         1.3492E-12   -131.48  7.9464E-13    -55.80
   90.00    148.00   -999.99  -999.99  -999.99      0.0000      0.00         1.3561E-12   -131.09  7.6851E-13    -55.41
   90.00    149.00   -999.99  -999.99  -999.99      0.0000      0.00         1.3625E-12   -130.70  7.4253E-13    -55.02
   90.00    150.00   -999.99  -999.99  -999.99      0.0000      0.00         1.3686E-12   -130.33  7.1665E-13    -54.65
   90.00    151.00   -999.99  -999.99  -999.99      0.0000      0.00         1.3743E-12   -129.96  6.9088E-13    -54.29
   90.00    152.00   -999.99  -999.99  -999.99      0.0000      0.00         1.3796E-12   -129.61  6.6532E-13    -53.93
   90.00    153.00   -999.99  -999.99  -999.99      0.0000      0.00         1.3845E-12   -129.27  6.3983E-13    -53.59
   90.00    154.00   -999.99  -999.99  -999.99      0.0000      0.00         1.3891E-12   -128.94  6.1450E-13    -53.27
   90.00    155.00   -999.99  -999.99  -999.99      0.0000      0.00         1.3934E-12   -128.62  5.8931E-13    -52.95
   90.00    156.00   -999.99  -999.99  -999.99      0.0000      0.00         1.3974E-12   -128.32  5.6430E-13    -52.64
   90.00    157.00   -999.99  -999.99  -999.99      0.0000      0.00         1.4011E-12   -128.03  5.3939E-13    -52.35
   90.00    158.00   -999.99  -999.99  -999.99      0.0000      0.00         1.4045E-12   -127.74  5.1467E-13    -52.07
   90.00    159.00   -999.99  -999.99  -999.99      0.0000      0.00         1.4077E-12   -127.48  4.9010E-13    -51.80
   90.00    160.00   -999.99  -999.99  -999.99      0.0000      0.00         1.4106E-12   -127.22  4.6565E-13    -51.54
   90.00    161.00   -999.99  -999.99  -999.99      0.0000      0.00         1.4133E-12   -126.97  4.4136E-13    -51.30
   90.00    162.00   -999.99  -999.99  -999.99      0.0000      0.00         1.4158E-12   -126.74  4.1722E-13    -51.06
   90.00    163.00   -999.99  -999.99  -999.99      0.0000      0.00         1.4180E-12   -126.52  3.9321E-13    -50.84
   90.00    164.00   -999.99  -999.99  -999.99      0.0000      0.00         1.4201E-12   -126.31  3.6931E-13    -50.63
   90.00    165.00   -999.99  -999.99  -999.99      0.0000      0.00         1.4219E-12   -126.11  3.4555E-13    -50.44
   90.00    166.00   -999.99  -999.99  -999.99      0.0000      0.00         1.4236E-12   -125.93  3.2194E-13    -50.25
   90.00    167.00   -999.99  -999.99  -999.99      0.0000      0.00         1.4252E-12   -125.76  2.9840E-13    -50.08
   90.00    168.00   -999.99  -999.99  -999.99      0.0000      0.00         1.4266E-12   -125.60  2.7501E-13    -49.92
   90.00    169.00   -999.99  -999.99  -999.99      0.0000      0.00         1.4278E-12   -125.45  2.5172E-13    -49.77
   90.00    170.00   -999.99  -999.99  -999.99      0.0000      0.00         1.4289E-12   -125.32  2.2852E-13    -49.64
   90.00    171.00   -999.99  -999.99  -999.99      0.0000      0.00         1.4299E-12   -125.20  2.0540E-13    -49.52
   90.00    172.00   -999.99  -999.99  -999.99      0.0000      0.00         1.4307E-12   -125.09  1.8237E-13    -49.41
   90.00    173.00   -999.99  -999.99  -999.99      0.0000      0.00         1.4315E-12   -125.00  1.5942E-13    -49.32
   90.00    174.00   -999.99  -999.99  -999.99      0.0000      0.00         1.4321E-12   -124.91  1.3652E-13    -49.24
   90.00    175.00   -999.99  -999.99  -999.99      0.0000      0.00         1.4326E-12   -124.84  1.1368E-13    -49.17
   90.00    176.00   -999.99  -999.99  -999.99      0.0000      0.00         1.4330E-12   -124.78  9.0887E-14    -49.11
   90.00    177.00   -999.99  -999.99  -999.99      0.0000      0.00         1.4334E-12   -124.74  6.8133E-14    -49.06
   90.00    178.00   -999.99  -999.99  -999.99      0.0000      0.00         1.4336E-12   -124.71  4.5405E-14    -49.03
   90.00    179.00   -999.99  -999.99  -999.99      0.0000      0.00         1.4337E-12   -124.69  2.2698E-14    -49.01
   90.00    180.00   -999.99  -999.99  -999.99      0.0000      0.00         1.4338E-12   -124.68  1.3273E-23    130.99
   90.00    181.00   -999.99  -999.99  -999.99      0.0000      0.00         1.4337E-12   -124.69  2.2698E-14    130.99
   90.00    182.00   -999.99  -999.99  -999.99      0.0000      0.00         1.4336E-12   -124.71  4.5405E-14    130.97
   90.00    183.00   -999.99  -999.99  -999.99      0.0000      0.00         1.4334E-12   -124.74  6.8130E-14    130.94
   90.00    184.00   -999.99  -999.99  -999.99      0.0000      0.00         1.4330E-12   -124.78  9.0886E-14    130.89
   90.00    185.00   -999.99  -999.99  -999.99      0.0000      0.00         1.4326E-12   -124.84  1.1368E-13    130.84
   90.00    186.00   -999.99  -999.99  -999.99      0.0000      0.00         1.4321E-12   -124.91  1.3651E-13    130.77
   90.00    187.00   -999.99  -999.99  -999.99      0.0000      0.00         1.4315E-12   -125.00  1.5942E-13    130.68
   90.00    188.00   -999.99  -999.99  -999.99      0.0000      0.00         1.4307E-12   -125.09  1.8237E-13    130.59
[...]
   90.00    196.00   -999.99  -999.99  -999.99      0.0000      0.00         7.9545E-13     35.96  3.6622E-13    -63.52
   90.00    197.00   -999.99  -999.99  -999.99      0.0000      0.00         7.8959E-13     34.97  3.8759E-13    -64.51
   90.00    198.00   -999.99  -999.99  -999.99      0.0000      0.00         7.8339E-13     33.92  4.0869E-13    -65.56
   90.00    199.00   -999.99  -999.99  -999.99      0.0000      0.00         7.7685E-13     32.80  4.2947E-13    -66.67
   90.00    200.00   -999.99  -999.99  -999.99      0.0000      0.00         7.6998E-13     31.62  4.4997E-13    -67.86
   90.00    201.00   -999.99  -999.99  -999.99      0.0000      0.00         7.6279E-13     30.38  4.7014E-13    -69.10
   90.00    202.00   -999.99  -999.99  -999.99      0.0000      0.00         7.5527E-13     29.06  4.8994E-13    -70.41
   90.00    203.00   -999.99  -999.99  -999.99      0.0000      0.00         7.4744E-13     27.68  5.0941E-13    -71.79
   90.00    204.00   -999.99  -999.99  -999.99      0.0000      0.00         7.3931E-13     26.24  5.2850E-13    -73.24
   90.00    205.00   -999.99  -999.99  -999.99      0.0000      0.00         7.3089E-13     24.72  5.4722E-13    -74.75
   90.00    206.00   -999.99  -999.99  -999.99      0.0000      0.00         7.2219E-13     23.14  5.6555E-13    -76.34
   90.00    207.00   -999.99  -999.99  -999.99      0.0000      0.00         7.1322E-13     21.48  5.8348E-13    -78.00
   90.00    208.00   -999.99  -999.99  -999.99      0.0000      0.00         7.0399E-13     19.75  6.0101E-13    -79.72
   90.00    209.00   -999.99  -999.99  -999.99      0.0000      0.00         6.9453E-13     17.95  6.1813E-13    -81.52
   90.00    210.00   -999.99  -999.99  -999.99      0.0000      0.00         6.8485E-13     16.08  6.3485E-13    -83.40
   90.00    211.00   -999.99  -999.99  -999.99      0.0000      0.00         6.7497E-13     14.13  6.5117E-13    -85.34
   90.00    212.00   -999.99  -999.99  -999.99      0.0000      0.00         6.6490E-13     12.11  6.6708E-13    -87.37
   90.00    213.00   -999.99  -999.99  -999.99      0.0000      0.00         6.5467E-13     10.01  6.8262E-13    -89.47
   90.00    214.00   -999.99  -999.99  -999.99      0.0000      0.00         6.4431E-13      7.83  6.9778E-13    -91.65
   90.00    215.00   -999.99  -999.99  -999.99      0.0000      0.00         6.3382E-13      5.57  7.1258E-13    -93.90
   90.00    216.00   -999.99  -999.99  -999.99      0.0000      0.00         6.2325E-13      3.24  7.2704E-13    -96.24
   90.00    217.00   -999.99  -999.99  -999.99      0.0000      0.00         6.1261E-13      0.82  7.4120E-13    -98.65
   90.00    218.00   -999.99  -999.99  -999.99      0.0000      0.00         6.0193E-13     -1.67  7.5508E-13   -101.15
   90.00    219.00   -999.99  -999.99  -999.99      0.0000      0.00         5.9124E-13     -4.25  7.6872E-13   -103.72
   90.00    220.00   -999.99  -999.99  -999.99      0.0000      0.00         5.8056E-13     -6.90  7.8215E-13   -106.38
   90.00    221.00   -999.99  -999.99  -999.99      0.0000      0.00         5.6992E-13     -9.64  7.9545E-13   -109.11
   90.00    222.00   -999.99  -999.99  -999.99      0.0000      0.00         5.5935E-13    -12.45  8.0864E-13   -111.93
   90.00    223.00   -999.99  -999.99  -999.99      0.0000      0.00         5.4887E-13    -15.34  8.2179E-13   -114.82
   90.00    224.00   -999.99  -999.99  -999.99      0.0000      0.00         5.3851E-13    -18.31  8.3496E-13   -117.79
   90.00    225.00   -999.99  -999.99  -999.99      0.0000      0.00         5.2829E-13    -21.36  8.4822E-13   -120.84
   90.00    226.00   -999.99  -999.99  -999.99      0.0000      0.00         5.1823E-13    -24.48  8.6163E-13   -123.96
   90.00    227.00   -999.99  -999.99  -999.99      0.0000      0.00         5.0835E-13    -27.67  8.7528E-13   -127.15
   90.00    228.00   -999.99  -999.99  -999.99      0.0000      0.00         4.9867E-13    -30.93  8.8921E-13   -130.40
   90.00    229.00   -999.99  -999.99  -999.99      0.0000      0.00         4.8918E-13    -34.25  9.0351E-13   -133.72
   90.00    230.00   -999.99  -999.99  -999.99      0.0000      0.00         4.7991E-13    -37.63  9.1829E-13   -137.11
   90.00    231.00   -999.99  -999.99  -999.99      0.0000      0.00         4.7085E-13    -41.06  9.3357E-13   -140.54
   90.00    232.00   -999.99  -999.99  -999.99      0.0000      0.00         4.6201E-13    -44.55  9.4945E-13   -144.02
   90.00    233.00   -999.99  -999.99  -999.99      0.0000      0.00         4.5337E-13    -48.08  9.6596E-13   -147.56
   90.00    234.00   -999.99  -999.99  -999.99      0.0000      0.00         4.4492E-13    -51.65  9.8323E-13   -151.12
   90.00    235.00   -999.99  -999.99  -999.99      0.0000      0.00         4.3664E-13    -55.25  1.0012E-12   -154.73
   90.00    236.00   -999.99  -999.99  -999.99      0.0000      0.00         4.2853E-13    -58.87  1.0201E-12   -158.35
   90.00    237.00   -999.99  -999.99  -999.99      0.0000      0.00         4.2053E-13    -62.52  1.0397E-12   -162.00
   90.00    238.00   -999.99  -999.99  -999.99      0.0000      0.00         4.1263E-13    -66.18  1.0602E-12   -165.66
   90.00    239.00   -999.99  -999.99  -999.99      0.0000      0.00         4.0479E-13    -69.85  1.0817E-12   -169.33
   90.00    240.00   -999.99  -999.99  -999.99      0.0000      0.00         3.9696E-13    -73.52  1.1039E-12   -173.00
   90.00    241.00   -999.99  -999.99  -999.99      0.0000      0.00         3.8911E-13    -77.18  1.1271E-12   -176.66
   90.00    242.00   -999.99  -999.99  -999.99      0.0000      0.00         3.8119E-13    -80.84  1.1511E-12    179.69
   90.00    243.00   -999.99  -999.99  -999.99      0.0000      0.00         3.7315E-13    -84.48  1.1759E-12    176.04
   90.00    244.00   -999.99  -999.99  -999.99      0.0000      0.00         3.6494E-13    -88.10  1.2014E-12    172.42
   90.00    245.00   -999.99  -999.99  -999.99      0.0000      0.00         3.5652E-13    -91.71  1.2276E-12    168.82
   90.00    246.00   -999.99  -999.99  -999.99      0.0000      0.00         3.4784E-13    -95.28  1.2544E-12    165.24
   90.00    247.00   -999.99  -999.99  -999.99      0.0000      0.00         3.3886E-13    -98.83  1.2818E-12    161.69
   90.00    248.00   -999.99  -999.99  -999.99      0.0000      0.00         3.2952E-13   -102.34  1.3095E-12    158.18
   90.00    249.00   -999.99  -999.99  -999.99      0.0000      0.00         3.1979E-13   -105.83  1.3376E-12    154.70
   90.00    250.00   -999.99  -999.99  -999.99      0.0000      0.00         3.0963E-13   -109.28  1.3659E-12    151.25
   90.00    251.00   -999.99  -999.99  -999.99      0.0000      0.00         2.9901E-13   -112.69  1.3943E-12    147.83
   90.00    252.00   -999.99  -999.99  -999.99      0.0000      0.00         2.8789E-13   -116.07  1.4226E-12    144.45
   90.00    253.00   -999.99  -999.99  -999.99      0.0000      0.00         2.7625E-13   -119.42  1.4508E-12    141.11
   90.00    254.00   -999.99  -999.99  -999.99      0.0000      0.00         2.6408E-13   -122.72  1.4787E-12    137.80
   90.00    255.00   -999.99  -999.99  -999.99      0.0000      0.00         2.5135E-13   -126.00  1.5061E-12    134.53
   90.00    256.00   -999.99  -999.99  -999.99      0.0000      0.00         2.3805E-13   -129.23  1.5330E-12    131.29
   90.00    257.00   -999.99  -999.99  -999.99      0.0000      0.00         2.2419E-13   -132.44  1.5592E-12    128.09
   90.00    258.00   -999.99  -999.99  -999.99      0.0000      0.00         2.0977E-13   -135.61  1.5845E-12    124.91
   90.00    259.00   -999.99  -999.99  -999.99      0.0000      0.00         1.9478E-13   -138.75  1.6089E-12    121.77
   90.00    260.00   -999.99  -999.99  -999.99      0.0000      0.00         1.7924E-13   -141.86  1.6322E-12    118.67
   90.00    261.00   -999.99  -999.99  -999.99      0.0000      0.00         1.6318E-13   -144.93  1.6542E-12    115.59
   90.00    262.00   -999.99  -999.99  -999.99      0.0000      0.00         1.4661E-13   -147.98  1.6750E-12    112.54
   90.00    263.00   -999.99  -999.99  -999.99      0.0000      0.00         1.2956E-13   -151.00  1.6942E-12    109.52
   90.00    264.00   -999.99  -999.99  -999.99      0.0000      0.00         1.1206E-13   -154.00  1.7119E-12    106.52
   90.00    265.00   -999.99  -999.99  -999.99      0.0000      0.00         9.4153E-14   -156.97  1.7279E-12    103.55
   90.00    266.00   -999.99  -999.99  -999.99      0.0000      0.00         7.5875E-14   -159.92  1.7422E-12    100.60
   90.00    267.00   -999.99  -999.99  -999.99      0.0000      0.00         5.7272E-14   -162.85  1.7546E-12     97.68
   90.00    268.00   -999.99  -999.99  -999.99      0.0000      0.00         3.8390E-14   -165.75  1.7652E-12     94.77
   90.00    269.00   -999.99  -999.99  -999.99      0.0000      0.00         1.9282E-14   -168.64  1.7737E-12     91.89
   90.00    270.00   -999.99  -999.99  -999.99      0.0000      0.00         1.6975E-23      8.49  1.7802E-12     89.02
   90.00    271.00   -999.99  -999.99  -999.99      0.0000      0.00         1.9401E-14      5.64  1.7846E-12     86.17
   90.00    272.00   -999.99  -999.99  -999.99      0.0000      0.00         3.8863E-14      2.81  1.7869E-12     83.33
   90.00    273.00   -999.99  -999.99  -999.99      0.0000      0.00         5.8329E-14     -0.01  1.7870E-12     80.51
   90.00    274.00   -999.99  -999.99  -999.99      0.0000      0.00         7.7739E-14     -2.82  1.7850E-12     77.70
   90.00    275.00   -999.99  -999.99  -999.99      0.0000      0.00         9.7035E-14     -5.62  1.7808E-12     74.90
   90.00    276.00   -999.99  -999.99  -999.99      0.0000      0.00         1.1616E-13     -8.41  1.7745E-12     72.12
   90.00    277.00   -999.99  -999.99  -999.99      0.0000      0.00         1.3505E-13    -11.18  1.7660E-12     69.34
   90.00    278.00   -999.99  -999.99  -999.99      0.0000      0.00         1.5365E-13    -13.95  1.7554E-12     66.57
   90.00    279.00   -999.99  -999.99  -999.99      0.0000      0.00         1.7191E-13    -16.71  1.7427E-12     63.81
   90.00    280.00   -999.99  -999.99  -999.99      0.0000      0.00         1.8976E-13    -19.47  1.7280E-12     61.05
   90.00    281.00   -999.99  -999.99  -999.99      0.0000      0.00         2.0717E-13    -22.22  1.7113E-12     58.30
   90.00    282.00   -999.99  -999.99  -999.99      0.0000      0.00         2.2408E-13    -24.97  1.6927E-12     55.55
   90.00    283.00   -999.99  -999.99  -999.99      0.0000      0.00         2.4044E-13    -27.72  1.6722E-12     52.81
   90.00    284.00   -999.99  -999.99  -999.99      0.0000      0.00         2.5621E-13    -30.46  1.6499E-12     50.06
   90.00    285.00   -999.99  -999.99  -999.99      0.0000      0.00         2.7136E-13    -33.21  1.6261E-12     47.31
   90.00    286.00   -999.99  -999.99  -999.99      0.0000      0.00         2.8584E-13    -35.95  1.6006E-12     44.57
   90.00    287.00   -999.99  -999.99  -999.99      0.0000      0.00         2.9963E-13    -38.70  1.5735E-12     41.82
   90.00    288.00   -999.99  -999.99  -999.99      0.0000      0.00         3.1269E-13    -41.46  1.5452E-12     39.06
   90.00    289.00   -999.99  -999.99  -999.99      0.0000      0.00         3.2501E-13    -44.22  1.5156E-12     36.30
   90.00    290.00   -999.99  -999.99  -999.99      0.0000      0.00         3.3657E-13    -46.99  1.4847E-12     33.54
   90.00    291.00   -999.99  -999.99  -999.99      0.0000      0.00         3.4736E-13    -49.76  1.4529E-12     30.76
   90.00    292.00   -999.99  -999.99  -999.99      0.0000      0.00         3.5736E-13    -52.55  1.4202E-12     27.98
   90.00    293.00   -999.99  -999.99  -999.99      0.0000      0.00         3.6658E-13    -55.34  1.3866E-12     25.18
   90.00    294.00   -999.99  -999.99  -999.99      0.0000      0.00         3.7500E-13    -58.15  1.3524E-12     22.37
   90.00    295.00   -999.99  -999.99  -999.99      0.0000      0.00         3.8265E-13    -60.97  1.3176E-12     19.55
   90.00    296.00   -999.99  -999.99  -999.99      0.0000      0.00         3.8953E-13    -63.81  1.2823E-12     16.71
   90.00    297.00   -999.99  -999.99  -999.99      0.0000      0.00         3.9565E-13    -66.67  1.2468E-12     13.86
   90.00    298.00   -999.99  -999.99  -999.99      0.0000      0.00         4.0104E-13    -69.54  1.2110E-12     10.98
   90.00    299.00   -999.99  -999.99  -999.99      0.0000      0.00         4.0572E-13    -72.43  1.1752E-12      8.09
   90.00    300.00   -999.99  -999.99  -999.99      0.0000      0.00         4.0971E-13    -75.35  1.1394E-12      5.17
   90.00    301.00   -999.99  -999.99  -999.99      0.0000      0.00         4.1305E-13    -78.28  1.1037E-12      2.24
   90.00    302.00   -999.99  -999.99  -999.99      0.0000      0.00         4.1578E-13    -81.24  1.0683E-12     -0.72
   90.00    303.00   -999.99  -999.99  -999.99      0.0000      0.00         4.1793E-13    -84.23  1.0333E-12     -3.70
   90.00    304.00   -999.99  -999.99  -999.99      0.0000      0.00         4.1955E-13    -87.24  9.9870E-13     -6.72
   90.00    305.00   -999.99  -999.99  -999.99      0.0000      0.00         4.2068E-13    -90.28  9.6463E-13     -9.75
   90.00    306.00   -999.99  -999.99  -999.99      0.0000      0.00         4.2137E-13    -93.34  9.3118E-13    -12.81
   90.00    307.00   -999.99  -999.99  -999.99      0.0000      0.00         4.2166E-13    -96.43  8.9844E-13    -15.91
   90.00    308.00   -999.99  -999.99  -999.99      0.0000      0.00         4.2162E-13    -99.55  8.6646E-13    -19.02
   90.00    309.00   -999.99  -999.99  -999.99      0.0000      0.00         4.2129E-13   -102.69  8.3531E-13    -22.17
   90.00    310.00   -999.99  -999.99  -999.99      0.0000      0.00         4.2072E-13   -105.86  8.0502E-13    -25.34
   90.00    311.00   -999.99  -999.99  -999.99      0.0000      0.00         4.1997E-13   -109.05  7.7569E-13    -28.53
   90.00    312.00   -999.99  -999.99  -999.99      0.0000      0.00         4.1909E-13   -112.27  7.4732E-13    -31.75
   90.00    313.00   -999.99  -999.99  -999.99      0.0000      0.00         4.1814E-13   -115.51  7.1994E-13    -34.98
   90.00    314.00   -999.99  -999.99  -999.99      0.0000      0.00         4.1715E-13   -118.76  6.9357E-13    -38.23
   90.00    315.00   -999.99  -999.99  -999.99      0.0000      0.00         4.1619E-13   -122.03  6.6822E-13    -41.50
   90.00    316.00   -999.99  -999.99  -999.99      0.0000      0.00         4.1530E-13   -125.30  6.4392E-13    -44.78
   90.00    317.00   -999.99  -999.99  -999.99      0.0000      0.00         4.1451E-13   -128.58  6.2061E-13    -48.06
   90.00    318.00   -999.99  -999.99  -999.99      0.0000      0.00         4.1387E-13   -131.87  5.9833E-13    -51.34
   90.00    319.00   -999.99  -999.99  -999.99      0.0000      0.00         4.1342E-13   -135.14  5.7703E-13    -54.62
   90.00    320.00   -999.99  -999.99  -999.99      0.0000      0.00         4.1318E-13   -138.41  5.5664E-13    -57.89
   90.00    321.00   -999.99  -999.99  -999.99      0.0000      0.00         4.1317E-13   -141.65  5.3720E-13    -61.13
   90.00    322.00   -999.99  -999.99  -999.99      0.0000      0.00         4.1343E-13   -144.87  5.1861E-13    -64.35
   90.00    323.00   -999.99  -999.99  -999.99      0.0000      0.00         4.1396E-13   -148.06  5.0084E-13    -67.54
   90.00    324.00   -999.99  -999.99  -999.99      0.0000      0.00         4.1477E-13   -151.21  4.8383E-13    -70.68
   90.00    325.00   -999.99  -999.99  -999.99      0.0000      0.00         4.1588E-13   -154.31  4.6754E-13    -73.79
   90.00    326.00   -999.99  -999.99  -999.99      0.0000      0.00         4.1727E-13   -157.36  4.5189E-13    -76.84
   90.00    327.00   -999.99  -999.99  -999.99      0.0000      0.00         4.1895E-13   -160.35  4.3682E-13    -79.83
   90.00    328.00   -999.99  -999.99  -999.99      0.0000      0.00         4.2090E-13   -163.28  4.2228E-13    -82.75
   90.00    329.00   -999.99  -999.99  -999.99      0.0000      0.00         4.2312E-13   -166.13  4.0820E-13    -85.61
   90.00    330.00   -999.99  -999.99  -999.99      0.0000      0.00         4.2558E-13   -168.91  3.9450E-13    -88.39
   90.00    331.00   -999.99  -999.99  -999.99      0.0000      0.00         4.2827E-13   -171.61  3.8116E-13    -91.09
   90.00    332.00   -999.99  -999.99  -999.99      0.0000      0.00         4.3117E-13   -174.23  3.6810E-13    -93.71
   90.00    333.00   -999.99  -999.99  -999.99      0.0000      0.00         4.3425E-13   -176.76  3.5526E-13    -96.23
   90.00    334.00   -999.99  -999.99  -999.99      0.0000      0.00         4.3749E-13   -179.19  3.4260E-13    -98.67
   90.00    335.00   -999.99  -999.99  -999.99      0.0000      0.00         4.4087E-13    178.46  3.3008E-13   -101.02
   90.00    336.00   -999.99  -999.99  -999.99      0.0000      0.00         4.4434E-13    176.21  3.1764E-13   -103.27
   90.00    337.00   -999.99  -999.99  -999.99      0.0000      0.00         4.4790E-13    174.05  3.0525E-13   -105.42
   90.00    338.00   -999.99  -999.99  -999.99      0.0000      0.00         4.5151E-13    171.99  2.9290E-13   -107.49
   90.00    339.00   -999.99  -999.99  -999.99      0.0000      0.00         4.5515E-13    170.03  2.8052E-13   -109.45
   90.00    340.00   -999.99  -999.99  -999.99      0.0000      0.00         4.5879E-13    168.17  2.6811E-13   -111.31
   90.00    341.00   -999.99  -999.99  -999.99      0.0000      0.00         4.6241E-13    166.40  2.5564E-13   -113.08
   90.00    342.00   -999.99  -999.99  -999.99      0.0000      0.00         4.6597E-13    164.73  2.4310E-13   -114.75
   90.00    343.00   -999.99  -999.99  -999.99      0.0000      0.00         4.6947E-13    163.16  2.3046E-13   -116.32
   90.00    344.00   -999.99  -999.99  -999.99      0.0000      0.00         4.7288E-13    161.68  2.1772E-13   -117.80
   90.00    345.00   -999.99  -999.99  -999.99      0.0000      0.00         4.7618E-13    160.29  2.0486E-13   -119.18
   90.00    346.00   -999.99  -999.99  -999.99      0.0000      0.00         4.7935E-13    159.00  1.9189E-13   -120.47
   90.00    347.00   -999.99  -999.99  -999.99      0.0000      0.00         4.8237E-13    157.81  1.7880E-13   -121.67
   90.00    348.00   -999.99  -999.99  -999.99      0.0000      0.00         4.8523E-13    156.71  1.6560E-13   -122.77
   90.00    349.00   -999.99  -999.99  -999.99      0.0000      0.00         4.8791E-13    155.70  1.5227E-13   -123.78
   90.00    350.00   -999.99  -999.99  -999.99      0.0000      0.00         4.9040E-13    154.78  1.3884E-13   -124.70
   90.00    351.00   -999.99  -999.99  -999.99      0.0000      0.00         4.9269E-13    153.95  1.2529E-13   -125.53
   90.00    352.00   -999.99  -999.99  -999.99      0.0000      0.00         4.9476E-13    153.21  1.1164E-13   -126.27
   90.00    353.00   -999.99  -999.99  -999.99      0.0000      0.00         4.9662E-13    152.56  9.7903E-14   -126.92
   90.00    354.00   -999.99  -999.99  -999.99      0.0000      0.00         4.9824E-13    151.99  8.4081E-14   -127.49
   90.00    355.00   -999.99  -999.99  -999.99      0.0000      0.00         4.9962E-13    151.52  7.0182E-14   -127.96
   90.00    356.00   -999.99  -999.99  -999.99      0.0000      0.00         5.0076E-13    151.13  5.6220E-14   -128.35
   90.00    357.00   -999.99  -999.99  -999.99      0.0000      0.00         5.0166E-13    150.83  4.2212E-14   -128.65
   90.00    358.00   -999.99  -999.99  -999.99      0.0000      0.00         5.0230E-13    150.61  2.8164E-14   -128.87
   90.00    359.00   -999.99  -999.99  -999.99      0.0000      0.00         5.0268E-13    150.48  1.4088E-14   -128.99
   90.00    360.00   -999.99  -999.99  -999.99      0.0000      0.00         5.0281E-13    150.44  1.6480E-23     50.96
  DATA CARD No:   7 EN   0     0     0     0  0.00000E+00  0.00000E+00  0.00000E+00  0.00000E+00  0.00000E+00  0.00000E+00

  TOTAL RUN TIME: 870 msec