


                               __________________________________________
                              |                                          |
                              |  NUMERICAL ELECTROMAGNETICS CODE (nec2c) |
                              |   Translated to 'C' in Double Precision  |
                              |__________________________________________|



                               ---------------- COMMENTS ----------------
                               Long Wire Antenna — NEC2 Model (antenna H + counterpoise V)
                               Wire length: 13.3 m  |  Counterpoise (vertical): 5.0 m  |  Height: 5.0 m
                               Wire diameter: 1.0 mm  |  Conductivity: 5.80E+7 S/m
                               Frequency sweep: 7.00 – 14.50 MHz  step 0.50 MHz
                               Geometry: antenna horizontal (X-axis), counterpoise vertical drop from feedpoint
                               Generated by Long Wire Antenna Calculator – LU3VEA
                              



                               -------- STRUCTURE SPECIFICATION --------
                                     COORDINATES MUST BE INPUT IN
                                     METERS OR BE SCALED TO METERS
                                     BEFORE STRUCTURE INPUT IS ENDED

  WIRE                                                                                 SEG FIRST  LAST  TAG
   No:        X1         Y1         Z1         X2         Y2         Z2       RADIUS   No:   SEG   SEG  No:
     1    -6.65000    0.00000    5.00000    6.65000    0.00000    5.00000    0.00050    11     1    11    1
     2    -6.65000    0.00000    5.00000   -6.65000    0.00000    0.00010    0.00050     7    12    18    2

     GROUND PLANE SPECIFIED.
     WHERE WIRE ENDS TOUCH GROUND, CURRENT WILL BE INTERPOLATED TO IMAGE IN GROUND PLANE.


     TOTAL SEGMENTS USED: 18   SEGMENTS IN A SYMMETRIC CELL: 18   SYMMETRY FLAG: 0


                               ---------- SEGMENTATION DATA ----------
                                        COORDINATES IN METERS
                            I+ AND I- INDICATE THE SEGMENTS BEFORE AND AFTER I

   SEG    COORDINATES OF SEGM CENTER     SEGM    ORIENTATION ANGLES    WIRE    CONNECTION DATA   TAG
   No:       X         Y         Z      LENGTH     ALPHA      BETA    RADIUS    I-     I    I+   No:
     1   -6.0455    0.0000    5.0000    1.2091    0.0000    0.0000    0.0005   -12     1     2     1
     2   -4.8364    0.0000    5.0000    1.2091    0.0000    0.0000    0.0005     1     2     3     1
     3   -3.6273    0.0000    5.0000    1.2091    0.0000    0.0000    0.0005     2     3     4     1
     4   -2.4182    0.0000    5.0000    1.2091    0.0000    0.0000    0.0005     3     4     5     1
     5   -1.2091    0.0000    5.0000    1.2091    0.0000    0.0000    0.0005     4     5     6     1
     6   -0.0000    0.0000    5.0000    1.2091    0.0000    0.0000    0.0005     5     6     7     1
     7    1.2091    0.0000    5.0000    1.2091    0.0000    0.0000    0.0005     6     7     8     1
     8    2.4182    0.0000    5.0000    1.2091    0.0000    0.0000    0.0005     7     8     9     1
     9    3.6273    0.0000    5.0000    1.2091    0.0000    0.0000    0.0005     8     9    10     1
    10    4.8364    0.0000    5.0000    1.2091    0.0000    0.0000    0.0005     9    10    11     1
    11    6.0455    0.0000    5.0000    1.2091    0.0000    0.0000    0.0005    10    11     0     1
    12   -6.6500    0.0000    4.6429    0.7143  -90.0000    0.0000    0.0005    -1    12    13     2
    13   -6.6500    0.0000    3.9286    0.7143  -90.0000    0.0000    0.0005    12    13    14     2
    14   -6.6500    0.0000    3.2143    0.7143  -90.0000    0.0000    0.0005    13    14    15     2
    15   -6.6500    0.0000    2.5000    0.7143  -90.0000    0.0000    0.0005    14    15    16     2
    16   -6.6500    0.0000    1.7858    0.7143  -90.0000    0.0000    0.0005    15    16    17     2
    17   -6.6500    0.0000    1.0715    0.7143  -90.0000    0.0000    0.0005    16    17    18     2
    18   -6.6500    0.0000    0.3572    0.7144  -90.0000    0.0000    0.0005    17    18    18     2



  DATA CARD No:   1 LD   5     1     1    11  5.80000E+07  0.00000E+00  0.00000E+00  0.00000E+00  0.00000E+00  0.00000E+00
  DATA CARD No:   2 LD   5     2     1     7  5.80000E+07  0.00000E+00  0.00000E+00  0.00000E+00  0.00000E+00  0.00000E+00
  DATA CARD No:   3 EX   0     1     1     0  1.00000E+00  0.00000E+00  0.00000E+00  0.00000E+00  0.00000E+00  0.00000E+00
  DATA CARD No:   4 GN   2     0     0     0  1.30000E+01  5.00000E-03  0.00000E+00  0.00000E+00  0.00000E+00  0.00000E+00
  DATA CARD No:   5 FR   0    16     0     0  7.00000E+00  5.00000E-01  0.00000E+00  0.00000E+00  0.00000E+00  0.00000E+00
  DATA CARD No:   6 RP   0     1   361  1000  9.00000E+01  0.00000E+00  0.00000E+00  1.00000E+00  0.00000E+00  0.00000E+00


                               --------- FREQUENCY --------
                                FREQUENCY : 7.0000E+00 MHz
                                WAVELENGTH: 4.2829E+01 Mtr

                        APPROXIMATE INTEGRATION EMPLOYED FOR SEGMENTS 
                        THAT ARE MORE THAN 1.000 WAVELENGTHS APART


                          ------ STRUCTURE IMPEDANCE LOADING ------
  LOCATION        RESISTANCE  INDUCTANCE  CAPACITANCE     IMPEDANCE (OHMS)   CONDUCTIVITY  CIRCUIT
  ITAG FROM THRU     OHMS       HENRYS      FARADS       REAL     IMAGINARY   MHOS/METER      TYPE
     1    1   11                                                              5.8000E+07     WIRE  
     2    1    7                                                              5.8000E+07     WIRE  


                            -------- ANTENNA ENVIRONMENT --------
                            FINITE GROUND - SOMMERFELD SOLUTION
                            RELATIVE DIELECTRIC CONST: 13.000
                            CONDUCTIVITY:  5.000E-03 MHOS/METER
                            COMPLEX DIELECTRIC CONSTANT:  1.3000E+01-1.2840E+01j


                             ---------- MATRIX TIMING ----------
                               FILL: 0 msec  FACTOR: 0 msec


                        --------- ANTENNA INPUT PARAMETERS ---------
  TAG   SEG       VOLTAGE (VOLTS)         CURRENT (AMPS)         IMPEDANCE (OHMS)        ADMITTANCE (MHOS)     POWER
  No:   No:     REAL      IMAGINARY     REAL      IMAGINARY     REAL      IMAGINARY    REAL       IMAGINARY   (WATTS)
    1     1  1.0000E+00  0.0000E+00  6.3386E-04 -1.4498E-03  2.5316E+02  5.7905E+02  6.3386E-04 -1.4498E-03  3.1693E-04


                           -------- CURRENTS AND LOCATION --------
                                  DISTANCES IN WAVELENGTHS

   SEG  TAG    COORDINATES OF SEGM CENTER     SEGM    ------------- CURRENT (AMPS) -------------
   No:  No:       X         Y         Z      LENGTH     REAL      IMAGINARY    MAGN        PHASE
     1    1   -0.1412    0.0000    0.1167   0.02823  6.3386E-04 -1.4498E-03  1.5823E-03  -66.386
     2    1   -0.1129    0.0000    0.1167   0.02823  6.4474E-04 -1.5149E-03  1.6464E-03  -66.946
     3    1   -0.0847    0.0000    0.1167   0.02823  6.3801E-04 -1.5613E-03  1.6866E-03  -67.773
     4    1   -0.0565    0.0000    0.1167   0.02823  6.1382E-04 -1.5482E-03  1.6655E-03  -68.373
     5    1   -0.0282    0.0000    0.1167   0.02823  5.7282E-04 -1.4806E-03  1.5875E-03  -68.849
     6    1   -0.0000    0.0000    0.1167   0.02823  5.1616E-04 -1.3619E-03  1.4565E-03  -69.244
     7    1    0.0282    0.0000    0.1167   0.02823  4.4543E-04 -1.1964E-03  1.2767E-03  -69.580
     8    1    0.0565    0.0000    0.1167   0.02823  3.6251E-04 -9.8913E-04  1.0535E-03  -69.872
     9    1    0.0847    0.0000    0.1167   0.02823  2.6952E-04 -7.4581E-04  7.9302E-04  -70.131
    10    1    0.1129    0.0000    0.1167   0.02823  1.6845E-04 -4.7210E-04  5.0126E-04  -70.363
    11    1    0.1412    0.0000    0.1167   0.02823  5.9518E-05 -1.6876E-04  1.7895E-04  -70.573
    12    2   -0.1553    0.0000    0.1084   0.01668 -6.1300E-04  1.5814E-03  1.6961E-03  111.188
    13    2   -0.1553    0.0000    0.0917   0.01668 -5.9138E-04  1.6890E-03  1.7895E-03  109.297
    14    2   -0.1553    0.0000    0.0751   0.01668 -5.6486E-04  1.7737E-03  1.8615E-03  107.665
    15    2   -0.1553    0.0000    0.0584   0.01668 -5.3374E-04  1.8358E-03  1.9118E-03  106.211
    16    2   -0.1553    0.0000    0.0417   0.01668 -4.9840E-04  1.8753E-03  1.9404E-03  104.884
    17    2   -0.1553    0.0000    0.0250   0.01668 -4.5954E-04  1.8920E-03  1.9470E-03  103.652
    18    2   -0.1553    0.0000    0.0083   0.01668 -4.2387E-04  1.8897E-03  1.9367E-03  102.642


                               ---------- POWER BUDGET ---------
                               INPUT POWER   =  3.1693E-04 Watts
                               RADIATED POWER=  3.1246E-04 Watts
                               STRUCTURE LOSS=  4.4650E-06 Watts
                               NETWORK LOSS  =  0.0000E+00 Watts
                               EFFICIENCY    =   98.59 Percent


                             ---------- RADIATION PATTERNS -----------

 ---- ANGLES -----     ----- POWER GAINS -----       ---- POLARIZATION ----   ---- E(THETA) ----    ----- E(PHI) ------
  THETA      PHI       VERTC    HORIZ    TOTAL       AXIAL      TILT  SENSE   MAGNITUDE    PHASE    MAGNITUDE     PHASE
 DEGREES   DEGREES        DB       DB       DB       RATIO   DEGREES            VOLTS/M   DEGREES     VOLTS/M   DEGREES
   90.00      0.00   -999.99  -999.99  -999.99      0.0000      0.00         1.6127E-12    102.08  0.0000E+00      0.00
   90.00      1.00   -999.99  -999.99  -999.99      0.0000      0.00         1.6127E-12    102.10  9.8156E-15    -95.72
   90.00      2.00   -999.99  -999.99  -999.99      0.0000      0.00         1.6125E-12    102.13  1.9630E-14    -95.71
   90.00      3.00   -999.99  -999.99  -999.99      0.0000      0.00         1.6121E-12    102.19  2.9443E-14    -95.70
   90.00      4.00   -999.99  -999.99  -999.99      0.0000      0.00         1.6116E-12    102.27  3.9252E-14    -95.69
   90.00      5.00   -999.99  -999.99  -999.99      0.0000      0.00         1.6110E-12    102.37  4.9058E-14    -95.67
   90.00      6.00   -999.99  -999.99  -999.99      0.0000      0.00         1.6102E-12    102.50  5.8858E-14    -95.65
   90.00      7.00   -999.99  -999.99  -999.99      0.0000      0.00         1.6093E-12    102.64  6.8652E-14    -95.62
   90.00      8.00   -999.99  -999.99  -999.99      0.0000      0.00         1.6083E-12    102.82  7.8439E-14    -95.59
   90.00      9.00   -999.99  -999.99  -999.99      0.0000      0.00         1.6071E-12    103.01  8.8219E-14    -95.56
   90.00     10.00   -999.99  -999.99  -999.99      0.0000      0.00         1.6058E-12    103.23  9.7987E-14    -95.52
   90.00     11.00   -999.99  -999.99  -999.99      0.0000      0.00         1.6044E-12    103.47  1.0774E-13    -95.47
   90.00     12.00   -999.99  -999.99  -999.99      0.0000      0.00         1.6029E-12    103.73  1.1749E-13    -95.43
   90.00     13.00   -999.99  -999.99  -999.99      0.0000      0.00         1.6012E-12    104.02  1.2722E-13    -95.38
   90.00     14.00   -999.99  -999.99  -999.99      0.0000      0.00         1.5994E-12    104.33  1.3694E-13    -95.33
   90.00     15.00   -999.99  -999.99  -999.99      0.0000      0.00         1.5975E-12    104.66  1.4664E-13    -95.27
   90.00     16.00   -999.99  -999.99  -999.99      0.0000      0.00         1.5955E-12    105.02  1.5632E-13    -95.21
   90.00     17.00   -999.99  -999.99  -999.99      0.0000      0.00         1.5934E-12    105.39  1.6599E-13    -95.15
   90.00     18.00   -999.99  -999.99  -999.99      0.0000      0.00         1.5913E-12    105.80  1.7563E-13    -95.08
   90.00     19.00   -999.99  -999.99  -999.99      0.0000      0.00         1.5890E-12    106.22  1.8525E-13    -95.00
   90.00     20.00   -999.99  -999.99  -999.99      0.0000      0.00         1.5866E-12    106.67  1.9485E-13    -94.93
   90.00     21.00   -999.99  -999.99  -999.99      0.0000      0.00         1.5842E-12    107.14  2.0442E-13    -94.85
   90.00     22.00   -999.99  -999.99  -999.99      0.0000      0.00         1.5817E-12    107.64  2.1397E-13    -94.77
   90.00     23.00   -999.99  -999.99  -999.99      0.0000      0.00         1.5791E-12    108.16  2.2348E-13    -94.69
   90.00     24.00   -999.99  -999.99  -999.99      0.0000      0.00         1.5765E-12    108.70  2.3295E-13    -94.59
   90.00     25.00   -999.99  -999.99  -999.99      0.0000      0.00         1.5739E-12    109.26  2.4240E-13    -94.50
   90.00     26.00   -999.99  -999.99  -999.99      0.0000      0.00         1.5712E-12    109.85  2.5181E-13    -94.40
   90.00     27.00   -999.99  -999.99  -999.99      0.0000      0.00         1.5684E-12    110.46  2.6118E-13    -94.30
   90.00     28.00   -999.99  -999.99  -999.99      0.0000      0.00         1.5657E-12    111.10  2.7051E-13    -94.20
   90.00     29.00   -999.99  -999.99  -999.99      0.0000      0.00         1.5629E-12    111.76  2.7980E-13    -94.09
   90.00     30.00   -999.99  -999.99  -999.99      0.0000      0.00         1.5601E-12    112.44  2.8903E-13    -93.98
   90.00     31.00   -999.99  -999.99  -999.99      0.0000      0.00         1.5574E-12    113.14  2.9823E-13    -93.87
   90.00     32.00   -999.99  -999.99  -999.99      0.0000      0.00         1.5547E-12    113.87  3.0736E-13    -93.75
   90.00     33.00   -999.99  -999.99  -999.99      0.0000      0.00         1.5520E-12    114.62  3.1644E-13    -93.63
   90.00     34.00   -999.99  -999.99  -999.99      0.0000      0.00         1.5493E-12    115.40  3.2547E-13    -93.51
   90.00     35.00   -999.99  -999.99  -999.99      0.0000      0.00         1.5467E-12    116.19  3.3443E-13    -93.38
   90.00     36.00   -999.99  -999.99  -999.99      0.0000      0.00         1.5441E-12    117.01  3.4332E-13    -93.26
   90.00     37.00   -999.99  -999.99  -999.99      0.0000      0.00         1.5417E-12    117.85  3.5215E-13    -93.12
   90.00     38.00   -999.99  -999.99  -999.99      0.0000      0.00         1.5393E-12    118.72  3.6092E-13    -92.99
   90.00     39.00   -999.99  -999.99  -999.99      0.0000      0.00         1.5370E-12    119.60  3.6960E-13    -92.85
   90.00     40.00   -999.99  -999.99  -999.99      0.0000      0.00         1.5349E-12    120.51  3.7821E-13    -92.71
   90.00     41.00   -999.99  -999.99  -999.99      0.0000      0.00         1.5328E-12    121.44  3.8673E-13    -92.56
   90.00     42.00   -999.99  -999.99  -999.99      0.0000      0.00         1.5309E-12    122.39  3.9517E-13    -92.42
   90.00     43.00   -999.99  -999.99  -999.99      0.0000      0.00         1.5292E-12    123.36  4.0353E-13    -92.27
   90.00     44.00   -999.99  -999.99  -999.99      0.0000      0.00         1.5276E-12    124.35  4.1178E-13    -92.12
   90.00     45.00   -999.99  -999.99  -999.99      0.0000      0.00         1.5262E-12    125.36  4.1995E-13    -91.97
   90.00     46.00   -999.99  -999.99  -999.99      0.0000      0.00         1.5250E-12    126.39  4.2800E-13    -91.81
   90.00     47.00   -999.99  -999.99  -999.99      0.0000      0.00         1.5240E-12    127.44  4.3597E-13    -91.65
   90.00     48.00   -999.99  -999.99  -999.99      0.0000      0.00         1.5233E-12    128.51  4.4382E-13    -91.49
   90.00     49.00   -999.99  -999.99  -999.99      0.0000      0.00         1.5227E-12    129.59  4.5155E-13    -91.32
   90.00     50.00   -999.99  -999.99  -999.99      0.0000      0.00         1.5224E-12    130.69  4.5918E-13    -91.16
   90.00     51.00   -999.99  -999.99  -999.99      0.0000      0.00         1.5224E-12    131.81  4.6666E-13    -90.99
   90.00     52.00   -999.99  -999.99  -999.99      0.0000      0.00         1.5226E-12    132.95  4.7404E-13    -90.82
   90.00     53.00   -999.99  -999.99  -999.99      0.0000      0.00         1.5231E-12    134.10  4.8128E-13    -90.65
   90.00     54.00   -999.99  -999.99  -999.99      0.0000      0.00         1.5239E-12    135.27  4.8840E-13    -90.47
   90.00     55.00   -999.99  -999.99  -999.99      0.0000      0.00         1.5250E-12    136.45  4.9538E-13    -90.30
   90.00     56.00   -999.99  -999.99  -999.99      0.0000      0.00         1.5264E-12    137.64  5.0221E-13    -90.12
   90.00     57.00   -999.99  -999.99  -999.99      0.0000      0.00         1.5281E-12    138.84  5.0891E-13    -89.94
   90.00     58.00   -999.99  -999.99  -999.99      0.0000      0.00         1.5302E-12    140.06  5.1543E-13    -89.76
   90.00     59.00   -999.99  -999.99  -999.99      0.0000      0.00         1.5325E-12    141.29  5.2182E-13    -89.57
   90.00     60.00   -999.99  -999.99  -999.99      0.0000      0.00         1.5353E-12    142.52  5.2804E-13    -89.39
   90.00     61.00   -999.99  -999.99  -999.99      0.0000      0.00         1.5383E-12    143.77  5.3411E-13    -89.20
   90.00     62.00   -999.99  -999.99  -999.99      0.0000      0.00         1.5418E-12    145.02  5.4001E-13    -89.01
   90.00     63.00   -999.99  -999.99  -999.99      0.0000      0.00         1.5456E-12    146.28  5.4573E-13    -88.82
   90.00     64.00   -999.99  -999.99  -999.99      0.0000      0.00         1.5497E-12    147.54  5.5128E-13    -88.63
   90.00     65.00   -999.99  -999.99  -999.99      0.0000      0.00         1.5542E-12    148.81  5.5666E-13    -88.43
   90.00     66.00   -999.99  -999.99  -999.99      0.0000      0.00         1.5591E-12    150.09  5.6184E-13    -88.24
   90.00     67.00   -999.99  -999.99  -999.99      0.0000      0.00         1.5643E-12    151.36  5.6685E-13    -88.04
   90.00     68.00   -999.99  -999.99  -999.99      0.0000      0.00         1.5699E-12    152.64  5.7167E-13    -87.84
   90.00     69.00   -999.99  -999.99  -999.99      0.0000      0.00         1.5758E-12    153.92  5.7630E-13    -87.64
   90.00     70.00   -999.99  -999.99  -999.99      0.0000      0.00         1.5822E-12    155.20  5.8073E-13    -87.44
   90.00     71.00   -999.99  -999.99  -999.99      0.0000      0.00         1.5888E-12    156.48  5.8496E-13    -87.25
   90.00     72.00   -999.99  -999.99  -999.99      0.0000      0.00         1.5959E-12    157.76  5.8899E-13    -87.04
   90.00     73.00   -999.99  -999.99  -999.99      0.0000      0.00         1.6032E-12    159.04  5.9280E-13    -86.84
   90.00     74.00   -999.99  -999.99  -999.99      0.0000      0.00         1.6110E-12    160.31  5.9641E-13    -86.64
   90.00     75.00   -999.99  -999.99  -999.99      0.0000      0.00         1.6190E-12    161.58  5.9981E-13    -86.43
   90.00     76.00   -999.99  -999.99  -999.99      0.0000      0.00         1.6274E-12    162.84  6.0301E-13    -86.23
   90.00     77.00   -999.99  -999.99  -999.99      0.0000      0.00         1.6361E-12    164.10  6.0596E-13    -86.02
   90.00     78.00   -999.99  -999.99  -999.99      0.0000      0.00         1.6451E-12    165.35  6.0874E-13    -85.81
   90.00     79.00   -999.99  -999.99  -999.99      0.0000      0.00         1.6544E-12    166.60  6.1126E-13    -85.61
   90.00     80.00   -999.99  -999.99  -999.99      0.0000      0.00         1.6640E-12    167.84  6.1358E-13    -85.39
   90.00     81.00   -999.99  -999.99  -999.99      0.0000      0.00         1.6739E-12    169.07  6.1565E-13    -85.19
   90.00     82.00   -999.99  -999.99  -999.99      0.0000      0.00         1.6840E-12    170.29  6.1751E-13    -84.98
   90.00     83.00   -999.99  -999.99  -999.99      0.0000      0.00         1.6943E-12    171.50  6.1914E-13    -84.77
   90.00     84.00   -999.99  -999.99  -999.99      0.0000      0.00         1.7050E-12    172.70  6.2052E-13    -84.56
   90.00     85.00   -999.99  -999.99  -999.99      0.0000      0.00         1.7158E-12    173.89  6.2172E-13    -84.35
   90.00     86.00   -999.99  -999.99  -999.99      0.0000      0.00         1.7268E-12    175.07  6.2264E-13    -84.13
   90.00     87.00   -999.99  -999.99  -999.99      0.0000      0.00         1.7381E-12    176.24  6.2334E-13    -83.93
   90.00     88.00   -999.99  -999.99  -999.99      0.0000      0.00         1.7495E-12    177.40  6.2382E-13    -83.71
   90.00     89.00   -999.99  -999.99  -999.99      0.0000      0.00         1.7611E-12    178.54  6.2407E-13    -83.50
   90.00     90.00   -999.99  -999.99  -999.99      0.0000      0.00         1.7728E-12    179.68  6.2406E-13    -83.29
   90.00     91.00   -999.99  -999.99  -999.99      0.0000      0.00         1.7847E-12   -179.20  6.2385E-13    -83.08
   90.00     92.00   -999.99  -999.99  -999.99      0.0000      0.00         1.7966E-12   -178.09  6.2340E-13    -82.87
   90.00     93.00   -999.99  -999.99  -999.99      0.0000      0.00         1.8087E-12   -176.99  6.2270E-13    -82.65
   90.00     94.00   -999.99  -999.99  -999.99      0.0000      0.00         1.8209E-12   -175.91  6.2178E-13    -82.44
   90.00     95.00   -999.99  -999.99  -999.99      0.0000      0.00         1.8332E-12   -174.84  6.2064E-13    -82.23
   90.00     96.00   -999.99  -999.99  -999.99      0.0000      0.00         1.8455E-12   -173.78  6.1926E-13    -82.02
   90.00     97.00   -999.99  -999.99  -999.99      0.0000      0.00         1.8578E-12   -172.73  6.1765E-13    -81.81
   90.00     98.00   -999.99  -999.99  -999.99      0.0000      0.00         1.8702E-12   -171.70  6.1582E-13    -81.60
   90.00     99.00   -999.99  -999.99  -999.99      0.0000      0.00         1.8826E-12   -170.68  6.1376E-13    -81.39
   90.00    100.00   -999.99  -999.99  -999.99      0.0000      0.00         1.8950E-12   -169.68  6.1146E-13    -81.18
   90.00    101.00   -999.99  -999.99  -999.99      0.0000      0.00         1.9074E-12   -168.69  6.0896E-13    -80.97
   90.00    102.00   -999.99  -999.99  -999.99      0.0000      0.00         1.9198E-12   -167.71  6.0623E-13    -80.76
   90.00    103.00   -999.99  -999.99  -999.99      0.0000      0.00         1.9321E-12   -166.75  6.0330E-13    -80.56
   90.00    104.00   -999.99  -999.99  -999.99      0.0000      0.00         1.9444E-12   -165.80  6.0013E-13    -80.35
   90.00    105.00   -999.99  -999.99  -999.99      0.0000      0.00         1.9566E-12   -164.86  5.9677E-13    -80.15
   90.00    106.00   -999.99  -999.99  -999.99      0.0000      0.00         1.9687E-12   -163.93  5.9317E-13    -79.94
   90.00    107.00   -999.99  -999.99  -999.99      0.0000      0.00         1.9807E-12   -163.02  5.8939E-13    -79.73
   90.00    108.00   -999.99  -999.99  -999.99      0.0000      0.00         1.9927E-12   -162.13  5.8541E-13    -79.53
   90.00    109.00   -999.99  -999.99  -999.99      0.0000      0.00         2.0045E-12   -161.24  5.8121E-13    -79.33
   90.00    110.00   -999.99  -999.99  -999.99      0.0000      0.00         2.0162E-12   -160.37  5.7681E-13    -79.12
   90.00    111.00   -999.99  -999.99  -999.99      0.0000      0.00         2.0278E-12   -159.51  5.7221E-13    -78.93
   90.00    112.00   -999.99  -999.99  -999.99      0.0000      0.00         2.0393E-12   -158.67  5.6746E-13    -78.73
   90.00    113.00   -999.99  -999.99  -999.99      0.0000      0.00         2.0506E-12   -157.84  5.6250E-13    -78.53
   90.00    114.00   -999.99  -999.99  -999.99      0.0000      0.00         2.0617E-12   -157.02  5.5735E-13    -78.33
   90.00    115.00   -999.99  -999.99  -999.99      0.0000      0.00         2.0727E-12   -156.21  5.5200E-13    -78.14
   90.00    116.00   -999.99  -999.99  -999.99      0.0000      0.00         2.0836E-12   -155.42  5.4651E-13    -77.94
   90.00    117.00   -999.99  -999.99  -999.99      0.0000      0.00         2.0942E-12   -154.64  5.4085E-13    -77.75
   90.00    118.00   -999.99  -999.99  -999.99      0.0000      0.00         2.1047E-12   -153.87  5.3500E-13    -77.56
   90.00    119.00   -999.99  -999.99  -999.99      0.0000      0.00         2.1150E-12   -153.12  5.2899E-13    -77.37
   90.00    120.00   -999.99  -999.99  -999.99      0.0000      0.00         2.1250E-12   -152.38  5.2283E-13    -77.18
   90.00    121.00   -999.99  -999.99  -999.99      0.0000      0.00         2.1349E-12   -151.65  5.1652E-13    -77.00
   90.00    122.00   -999.99  -999.99  -999.99      0.0000      0.00         2.1446E-12   -150.93  5.1005E-13    -76.81
   90.00    123.00   -999.99  -999.99  -999.99      0.0000      0.00         2.1541E-12   -150.22  5.0341E-13    -76.63
   90.00    124.00   -999.99  -999.99  -999.99      0.0000      0.00         2.1634E-12   -149.53  4.9664E-13    -76.45
   90.00    125.00   -999.99  -999.99  -999.99      0.0000      0.00         2.1725E-12   -148.85  4.8974E-13    -76.27
   90.00    126.00   -999.99  -999.99  -999.99      0.0000      0.00         2.1813E-12   -148.18  4.8271E-13    -76.09
   90.00    127.00   -999.99  -999.99  -999.99      0.0000      0.00         2.1900E-12   -147.53  4.7555E-13    -75.92
   90.00    128.00   -999.99  -999.99  -999.99      0.0000      0.00         2.1984E-12   -146.89  4.6825E-13    -75.74
   90.00    129.00   -999.99  -999.99  -999.99      0.0000      0.00         2.2066E-12   -146.25  4.6084E-13    -75.57
   90.00    130.00   -999.99  -999.99  -999.99      0.0000      0.00         2.2146E-12   -145.64  4.5331E-13    -75.40
   90.00    131.00   -999.99  -999.99  -999.99      0.0000      0.00         2.2224E-12   -145.03  4.4565E-13    -75.24
   90.00    132.00   -999.99  -999.99  -999.99      0.0000      0.00         2.2299E-12   -144.43  4.3791E-13    -75.07
   90.00    133.00   -999.99  -999.99  -999.99      0.0000      0.00         2.2372E-12   -143.85  4.3005E-13    -74.91
   90.00    134.00   -999.99  -999.99  -999.99      0.0000      0.00         2.2444E-12   -143.28  4.2209E-13    -74.75
   90.00    135.00   -999.99  -999.99  -999.99      0.0000      0.00         2.2513E-12   -142.72  4.1402E-13    -74.59
   90.00    136.00   -999.99  -999.99  -999.99      0.0000      0.00         2.2580E-12   -142.17  4.0586E-13    -74.44
   90.00    137.00   -999.99  -999.99  -999.99      0.0000      0.00         2.2644E-12   -141.64  3.9764E-13    -74.28
   90.00    138.00   -999.99  -999.99  -999.99      0.0000      0.00         2.2707E-12   -141.12  3.8930E-13    -74.14
   90.00    139.00   -999.99  -999.99  -999.99      0.0000      0.00         2.2767E-12   -140.61  3.8092E-13    -73.99
   90.00    140.00   -999.99  -999.99  -999.99      0.0000      0.00         2.2826E-12   -140.11  3.7243E-13    -73.85
   90.00    141.00   -999.99  -999.99  -999.99      0.0000      0.00         2.2882E-12   -139.62  3.6386E-13    -73.70
   90.00    142.00   -999.99  -999.99  -999.99      0.0000      0.00         2.2937E-12   -139.14  3.5523E-13    -73.56
   90.00    143.00   -999.99  -999.99  -999.99      0.0000      0.00         2.2989E-12   -138.68  3.4651E-13    -73.43
   90.00    144.00   -999.99  -999.99  -999.99      0.0000      0.00         2.3040E-12   -138.23  3.3776E-13    -73.30
   90.00    145.00   -999.99  -999.99  -999.99      0.0000      0.00         2.3088E-12   -137.79  3.2895E-13    -73.16
   90.00    146.00   -999.99  -999.99  -999.99      0.0000      0.00         2.3135E-12   -137.36  3.2006E-13    -73.04
   90.00    147.00   -999.99  -999.99  -999.99      0.0000      0.00         2.3179E-12   -136.95  3.1113E-13    -72.91
   90.00    148.00   -999.99  -999.99  -999.99      0.0000      0.00         2.3222E-12   -136.54  3.0213E-13    -72.80
   90.00    149.00   -999.99  -999.99  -999.99      0.0000      0.00         2.3263E-12   -136.15  2.9309E-13    -72.68
   90.00    150.00   -999.99  -999.99  -999.99      0.0000      0.00         2.3303E-12   -135.77  2.8400E-13    -72.57
   90.00    151.00   -999.99  -999.99  -999.99      0.0000      0.00         2.3340E-12   -135.41  2.7488E-13    -72.45
   90.00    152.00   -999.99  -999.99  -999.99      0.0000      0.00         2.3376E-12   -135.05  2.6571E-13    -72.35
   90.00    153.00   -999.99  -999.99  -999.99      0.0000      0.00         2.3410E-12   -134.71  2.5651E-13    -72.24
   90.00    154.00   -999.99  -999.99  -999.99      0.0000      0.00         2.3443E-12   -134.38  2.4725E-13    -72.14
   90.00    155.00   -999.99  -999.99  -999.99      0.0000      0.00         2.3474E-12   -134.06  2.3798E-13    -72.04
   90.00    156.00   -999.99  -999.99  -999.99      0.0000      0.00         2.3504E-12   -133.75  2.2868E-13    -71.95
   90.00    157.00   -999.99  -999.99  -999.99      0.0000      0.00         2.3532E-12   -133.46  2.1933E-13    -71.86
   90.00    158.00   -999.99  -999.99  -999.99      0.0000      0.00         2.3558E-12   -133.18  2.0996E-13    -71.77
   90.00    159.00   -999.99  -999.99  -999.99      0.0000      0.00         2.3583E-12   -132.91  2.0058E-13    -71.69
   90.00    160.00   -999.99  -999.99  -999.99      0.0000      0.00         2.3607E-12   -132.65  1.9116E-13    -71.61
   90.00    161.00   -999.99  -999.99  -999.99      0.0000      0.00         2.3629E-12   -132.40  1.8172E-13    -71.53
   90.00    162.00   -999.99  -999.99  -999.99      0.0000      0.00         2.3650E-12   -132.17  1.7226E-13    -71.46
   90.00    163.00   -999.99  -999.99  -999.99      0.0000      0.00         2.3670E-12   -131.95  1.6278E-13    -71.39
   90.00    164.00   -999.99  -999.99  -999.99      0.0000      0.00         2.3688E-12   -131.74  1.5329E-13    -71.33
   90.00    165.00   -999.99  -999.99  -999.99      0.0000      0.00         2.3705E-12   -131.55  1.4378E-13    -71.26
   90.00    166.00   -999.99  -999.99  -999.99      0.0000      0.00         2.3721E-12   -131.37  1.3426E-13    -71.21
   90.00    167.00   -999.99  -999.99  -999.99      0.0000      0.00         2.3735E-12   -131.19  1.2472E-13    -71.16
   90.00    168.00   -999.99  -999.99  -999.99      0.0000      0.00         2.3749E-12   -131.04  1.1516E-13    -71.10
   90.00    169.00   -999.99  -999.99  -999.99      0.0000      0.00         2.3761E-12   -130.89  1.0561E-13    -71.06
   90.00    170.00   -999.99  -999.99  -999.99      0.0000      0.00         2.3772E-12   -130.76  9.6033E-14    -71.02
   90.00    171.00   -999.99  -999.99  -999.99      0.0000      0.00         2.3782E-12   -130.64  8.6454E-14    -70.98
   90.00    172.00   -999.99  -999.99  -999.99      0.0000      0.00         2.3791E-12   -130.53  7.6869E-14    -70.95
   90.00    173.00   -999.99  -999.99  -999.99      0.0000      0.00         2.3799E-12   -130.44  6.7273E-14    -70.91
   90.00    174.00   -999.99  -999.99  -999.99      0.0000      0.00         2.3806E-12   -130.35  5.7672E-14    -70.89
   90.00    175.00   -999.99  -999.99  -999.99      0.0000      0.00         2.3811E-12   -130.28  4.8068E-14    -70.87
   90.00    176.00   -999.99  -999.99  -999.99      0.0000      0.00         2.3816E-12   -130.23  3.8460E-14    -70.85
   90.00    177.00   -999.99  -999.99  -999.99      0.0000      0.00         2.3820E-12   -130.18  2.8846E-14    -70.84
   90.00    178.00   -999.99  -999.99  -999.99      0.0000      0.00         2.3822E-12   -130.15  1.9233E-14    -70.82
   90.00    179.00   -999.99  -999.99  -999.99      0.0000      0.00         2.3824E-12   -130.13  9.6165E-15    -70.82
   90.00    180.00   -999.99  -999.99  -999.99      0.0000      0.00         2.3824E-12   -130.13  5.6241E-24    109.18
   90.00    181.00   -999.99  -999.99  -999.99      0.0000      0.00         2.3824E-12   -130.13  9.6166E-15    109.18
   90.00    182.00   -999.99  -999.99  -999.99      0.0000      0.00         2.3822E-12   -130.15  1.9233E-14    109.18
   90.00    183.00   -999.99  -999.99  -999.99      0.0000      0.00         2.3820E-12   -130.18  2.8849E-14    109.17
   90.00    184.00   -999.99  -999.99  -999.99      0.0000      0.00         2.3816E-12   -130.23  3.8459E-14    109.15
   90.00    185.00   -999.99  -999.99  -999.99      0.0000      0.00         2.3811E-12   -130.28  4.8067E-14    109.13
   90.00    186.00   -999.99  -999.99  -999.99      0.0000      0.00         2.3806E-12   -130.35  5.7672E-14    109.11
   90.00    187.00   -999.99  -999.99  -999.99      0.0000      0.00         2.3799E-12   -130.44  6.7273E-14    109.08
   90.00    188.00   -999.99  -999.99  -999.99      0.0000      0.00         2.3791E-12   -130.53  7.6867E-14    109.06
   90.00    189.00   -999.99  -999.99  -999.99      0.0000      0.00         2.3782E-12   -130.64  8.6457E-14    109.02
   90.00    190.00   -999.99  -999.99  -999.99      0.0000      0.00         2.3772E-12   -130.76  9.6032E-14    108.98
   90.00    191.00   -999.99  -999.99  -999.99      0.0000      0.00         2.3761E-12   -130.89  1.0561E-13    108.94
   90.00    192.00   -999.99  -999.99  -999.99      0.0000      0.00         2.3749E-12   -131.04  1.1517E-13    108.89
   90.00    193.00   -999.99  -999.99  -999.99      0.0000      0.00         2.3735E-12   -131.19  1.2472E-13    108.85
   90.00    194.00   -999.99  -999.99  -999.99      0.0000      0.00         2.3721E-12   -131.37  1.3425E-13    108.79
   90.00    195.00   -999.99  -999.99  -999.99      0.0000      0.00         2.3705E-12   -131.55  1.4378E-13    108.74
   90.00    196.00   -999.99  -999.99  -999.99      0.0000      0.00         2.3688E-12   -131.74  1.5329E-13    108.67
   90.00    197.00   -999.99  -999.99  -999.99      0.0000      0.00         2.3670E-12   -131.95  1.6279E-13    108.61
   90.00    198.00   -999.99  -999.99  -999.99      0.0000      0.00         2.3650E-12   -132.17  1.7226E-13    108.54
   90.00    199.00   -999.99  -999.99  -999.99      0.0000      0.00         2.3629E-12   -132.40  1.8171E-13    108.47
   90.00    200.00   -999.99  -999.99  -999.99      0.0000      0.00         2.3607E-12   -132.65  1.9115E-13    108.39
   90.00    201.00   -999.99  -999.99  -999.99      0.0000      0.00         2.3583E-12   -132.91  2.0057E-13    108.31
   90.00    202.00   -999.99  -999.99  -999.99      0.0000      0.00         2.3558E-12   -133.18  2.0995E-13    108.23
   90.00    203.00   -999.99  -999.99  -999.99      0.0000      0.00         2.3532E-12   -133.46  2.1933E-13    108.14
   90.00    204.00   -999.99  -999.99  -999.99      0.0000      0.00         2.3504E-12   -133.75  2.2867E-13    108.05
   90.00    205.00   -999.99  -999.99  -999.99      0.0000      0.00         2.3474E-12   -134.06  2.3798E-13    107.96
   90.00    206.00   -999.99  -999.99  -999.99      0.0000      0.00         2.3443E-12   -134.38  2.4725E-13    107.86
   90.00    207.00   -999.99  -999.99  -999.99      0.0000      0.00         2.3410E-12   -134.71  2.5650E-13    107.76
   90.00    208.00   -999.99  -999.99  -999.99      0.0000      0.00         2.3376E-12   -135.05  2.6572E-13    107.66
   90.00    209.00   -999.99  -999.99  -999.99      0.0000      0.00         2.3340E-12   -135.41  2.7488E-13    107.55
   90.00    210.00   -999.99  -999.99  -999.99      0.0000      0.00         2.3303E-12   -135.77  2.8401E-13    107.43
   90.00    211.00   -999.99  -999.99  -999.99      0.0000      0.00         2.3263E-12   -136.15  2.9309E-13    107.32
   90.00    212.00   -999.99  -999.99  -999.99      0.0000      0.00         2.3222E-12   -136.54  3.0213E-13    107.20
   90.00    213.00   -999.99  -999.99  -999.99      0.0000      0.00         2.3179E-12   -136.95  3.1113E-13    107.09
   90.00    214.00   -999.99  -999.99  -999.99      0.0000      0.00         2.3135E-12   -137.36  3.2006E-13    106.96
   90.00    215.00   -999.99  -999.99  -999.99      0.0000      0.00         2.3088E-12   -137.79  3.2894E-13    106.83
   90.00    216.00   -999.99  -999.99  -999.99      0.0000      0.00         2.3040E-12   -138.23  3.3776E-13    106.70
   90.00    217.00   -999.99  -999.99  -999.99      0.0000      0.00         2.2989E-12   -138.68  3.4652E-13    106.57
   90.00    218.00   -999.99  -999.99  -999.99      0.0000      0.00         2.2937E-12   -139.14  3.5523E-13    106.44
   90.00    219.00   -999.99  -999.99  -999.99      0.0000      0.00         2.2882E-12   -139.62  3.6385E-13    106.30
   90.00    220.00   -999.99  -999.99  -999.99      0.0000      0.00         2.2826E-12   -140.11  3.7242E-13    106.15
   90.00    221.00   -999.99  -999.99  -999.99      0.0000      0.00         2.2767E-12   -140.61  3.8091E-13    106.01
   90.00    222.00   -999.99  -999.99  -999.99      0.0000      0.00         2.2707E-12   -141.12  3.8931E-13    105.87
   90.00    223.00   -999.99  -999.99  -999.99      0.0000      0.00         2.2644E-12   -141.64  3.9764E-13    105.71
   90.00    224.00   -999.99  -999.99  -999.99      0.0000      0.00         2.2580E-12   -142.17  4.0587E-13    105.56
   90.00    225.00   -999.99  -999.99  -999.99      0.0000      0.00         2.2513E-12   -142.72  4.1403E-13    105.41
   90.00    226.00   -999.99  -999.99  -999.99      0.0000      0.00         2.2444E-12   -143.28  4.2210E-13    105.25
   90.00    227.00   -999.99  -999.99  -999.99      0.0000      0.00         2.2372E-12   -143.85  4.3005E-13    105.09
   90.00    228.00   -999.99  -999.99  -999.99      0.0000      0.00         2.2299E-12   -144.43  4.3791E-13    104.93
   90.00    229.00   -999.99  -999.99  -999.99      0.0000      0.00         2.2224E-12   -145.03  4.4567E-13    104.77
   90.00    230.00   -999.99  -999.99  -999.99      0.0000      0.00         2.2146E-12   -145.64  4.5330E-13    104.60
   90.00    231.00   -999.99  -999.99  -999.99      0.0000      0.00         2.2066E-12   -146.25  4.6084E-13    104.43
   90.00    232.00   -999.99  -999.99  -999.99      0.0000      0.00         2.1984E-12   -146.89  4.6825E-13    104.26
   90.00    233.00   -999.99  -999.99  -999.99      0.0000      0.00         2.1900E-12   -147.53  4.7554E-13    104.09
   90.00    234.00   -999.99  -999.99  -999.99      0.0000      0.00         2.1813E-12   -148.18  4.8272E-13    103.91
   90.00    235.00   -999.99  -999.99  -999.99      0.0000      0.00         2.1725E-12   -148.85  4.8973E-13    103.73
   90.00    236.00   -999.99  -999.99  -999.99      0.0000      0.00         2.1634E-12   -149.53  4.9664E-13    103.55
   90.00    237.00   -999.99  -999.99  -999.99      0.0000      0.00         2.1541E-12   -150.22  5.0341E-13    103.37
   90.00    238.00   -999.99  -999.99  -999.99      0.0000      0.00         2.1446E-12   -150.93  5.1003E-13    103.19
   90.00    239.00   -999.99  -999.99  -999.99      0.0000      0.00         2.1349E-12   -151.65  5.1650E-13    103.01
   90.00    240.00   -999.99  -999.99  -999.99      0.0000      0.00         2.1251E-12   -152.38  5.2283E-13    102.82
   90.00    241.00   -999.99  -999.99  -999.99      0.0000      0.00         2.1150E-12   -153.12  5.2899E-13    102.63
   90.00    242.00   -999.99  -999.99  -999.99      0.0000      0.00         2.1047E-12   -153.87  5.3500E-13    102.44
   90.00    243.00   -999.99  -999.99  -999.99      0.0000      0.00         2.0942E-12   -154.64  5.4084E-13    102.25
   90.00    244.00   -999.99  -999.99  -999.99      0.0000      0.00         2.0836E-12   -155.42  5.4651E-13    102.06
   90.00    245.00   -999.99  -999.99  -999.99      0.0000      0.00         2.0727E-12   -156.21  5.5202E-13    101.86
   90.00    246.00   -999.99  -999.99  -999.99      0.0000      0.00         2.0618E-12   -157.02  5.5734E-13    101.67
   90.00    247.00   -999.99  -999.99  -999.99      0.0000      0.00         2.0506E-12   -157.84  5.6249E-13    101.47
   90.00    248.00   -999.99  -999.99  -999.99      0.0000      0.00         2.0393E-12   -158.67  5.6744E-13    101.27
   90.00    249.00   -999.99  -999.99  -999.99      0.0000      0.00         2.0278E-12   -159.51  5.7224E-13    101.08
   90.00    250.00   -999.99  -999.99  -999.99      0.0000      0.00         2.0162E-12   -160.37  5.7680E-13    100.87
   90.00    251.00   -999.99  -999.99  -999.99      0.0000      0.00         2.0045E-12   -161.24  5.8121E-13    100.67
   90.00    252.00   -999.99  -999.99  -999.99      0.0000      0.00         1.9927E-12   -162.13  5.8539E-13    100.47
   90.00    253.00   -999.99  -999.99  -999.99      0.0000      0.00         1.9807E-12   -163.02  5.8939E-13    100.26
   90.00    254.00   -999.99  -999.99  -999.99      0.0000      0.00         1.9687E-12   -163.93  5.9319E-13    100.06
   90.00    255.00   -999.99  -999.99  -999.99      0.0000      0.00         1.9566E-12   -164.86  5.9676E-13     99.85
   90.00    256.00   -999.99  -999.99  -999.99      0.0000      0.00         1.9444E-12   -165.80  6.0014E-13     99.65
   90.00    257.00   -999.99  -999.99  -999.99      0.0000      0.00         1.9321E-12   -166.75  6.0330E-13     99.45
   90.00    258.00   -999.99  -999.99  -999.99      0.0000      0.00         1.9198E-12   -167.71  6.0623E-13     99.24
   90.00    259.00   -999.99  -999.99  -999.99      0.0000      0.00         1.9074E-12   -168.69  6.0897E-13     99.03
   90.00    260.00   -999.99  -999.99  -999.99      0.0000      0.00         1.8950E-12   -169.68  6.1146E-13     98.82
   90.00    261.00   -999.99  -999.99  -999.99      0.0000      0.00         1.8826E-12   -170.68  6.1376E-13     98.61
   90.00    262.00   -999.99  -999.99  -999.99      0.0000      0.00         1.8702E-12   -171.70  6.1581E-13     98.40
   90.00    263.00   -999.99  -999.99  -999.99      0.0000      0.00         1.8578E-12   -172.73  6.1765E-13     98.19
   90.00    264.00   -999.99  -999.99  -999.99      0.0000      0.00         1.8455E-12   -173.78  6.1927E-13     97.98
   90.00    265.00   -999.99  -999.99  -999.99      0.0000      0.00         1.8332E-12   -174.84  6.2064E-13     97.77
   90.00    266.00   -999.99  -999.99  -999.99      0.0000      0.00         1.8209E-12   -175.91  6.2179E-13     97.56
   90.00    267.00   -999.99  -999.99  -999.99      0.0000      0.00         1.8087E-12   -176.99  6.2272E-13     97.35
   90.00    268.00   -999.99  -999.99  -999.99      0.0000      0.00         1.7966E-12   -178.09  6.2339E-13     97.13
   90.00    269.00   -999.99  -999.99  -999.99      0.0000      0.00         1.7847E-12   -179.20  6.2387E-13     96.92
   90.00    270.00   -999.99  -999.99  -999.99      0.0000      0.00         1.7728E-12    179.68  6.2409E-13     96.71
   90.00    271.00   -999.99  -999.99  -999.99      0.0000      0.00         1.7611E-12    178.54  6.2407E-13     96.50
   90.00    272.00   -999.99  -999.99  -999.99      0.0000      0.00         1.7495E-12    177.40  6.2382E-13     96.29
   90.00    273.00   -999.99  -999.99  -999.99      0.0000      0.00         1.7381E-12    176.24  6.2335E-13     96.08
   90.00    274.00   -999.99  -999.99  -999.99      0.0000      0.00         1.7268E-12    175.07  6.2264E-13     95.86
   90.00    275.00   -999.99  -999.99  -999.99      0.0000      0.00         1.7158E-12    173.89  6.2171E-13     95.65
   90.00    276.00   -999.99  -999.99  -999.99      0.0000      0.00         1.7050E-12    172.70  6.2054E-13     95.44
   90.00    277.00   -999.99  -999.99  -999.99      0.0000      0.00         1.6944E-12    171.50  6.1914E-13     95.24
   90.00    278.00   -999.99  -999.99  -999.99      0.0000      0.00         1.6840E-12    170.29  6.1750E-13     95.03
   90.00    279.00   -999.99  -999.99  -999.99      0.0000      0.00         1.6739E-12    169.07  6.1565E-13     94.81
   90.00    280.00   -999.99  -999.99  -999.99      0.0000      0.00         1.6640E-12    167.84  6.1357E-13     94.61
   90.00    281.00   -999.99  -999.99  -999.99      0.0000      0.00         1.6544E-12    166.60  6.1127E-13     94.40
   90.00    282.00   -999.99  -999.99  -999.99      0.0000      0.00         1.6451E-12    165.35  6.0873E-13     94.19
   90.00    283.00   -999.99  -999.99  -999.99      0.0000      0.00         1.6361E-12    164.10  6.0597E-13     93.98
   90.00    284.00   -999.99  -999.99  -999.99      0.0000      0.00         1.6274E-12    162.84  6.0300E-13     93.78
   90.00    285.00   -999.99  -999.99  -999.99      0.0000      0.00         1.6190E-12    161.58  5.9982E-13     93.57
   90.00    286.00   -999.99  -999.99  -999.99      0.0000      0.00         1.6110E-12    160.31  5.9641E-13     93.36
   90.00    287.00   -999.99  -999.99  -999.99      0.0000      0.00         1.6032E-12    159.04  5.9280E-13     93.16
   90.00    288.00   -999.99  -999.99  -999.99      0.0000      0.00         1.5959E-12    157.76  5.8898E-13     92.96
   90.00    289.00   -999.99  -999.99  -999.99      0.0000      0.00         1.5888E-12    156.48  5.8496E-13     92.75
   90.00    290.00   -999.99  -999.99  -999.99      0.0000      0.00         1.5822E-12    155.20  5.8072E-13     92.55
   90.00    291.00   -999.99  -999.99  -999.99      0.0000      0.00         1.5758E-12    153.92  5.7630E-13     92.36
   90.00    292.00   -999.99  -999.99  -999.99      0.0000      0.00         1.5699E-12    152.64  5.7167E-13     92.15
   90.00    293.00   -999.99  -999.99  -999.99      0.0000      0.00         1.5643E-12    151.36  5.6684E-13     91.96
   90.00    294.00   -999.99  -999.99  -999.99      0.0000      0.00         1.5591E-12    150.09  5.6185E-13     91.77
   90.00    295.00   -999.99  -999.99  -999.99      0.0000      0.00         1.5542E-12    148.81  5.5666E-13     91.57
   90.00    296.00   -999.99  -999.99  -999.99      0.0000      0.00         1.5497E-12    147.54  5.5128E-13     91.38
   90.00    297.00   -999.99  -999.99  -999.99      0.0000      0.00         1.5455E-12    146.28  5.4573E-13     91.18
   90.00    298.00   -999.99  -999.99  -999.99      0.0000      0.00         1.5418E-12    145.02  5.4000E-13     90.99
   90.00    299.00   -999.99  -999.99  -999.99      0.0000      0.00         1.5383E-12    143.77  5.3411E-13     90.80
   90.00    300.00   -999.99  -999.99  -999.99      0.0000      0.00         1.5353E-12    142.52  5.2805E-13     90.62
   90.00    301.00   -999.99  -999.99  -999.99      0.0000      0.00         1.5326E-12    141.29  5.2182E-13     90.43
   90.00    302.00   -999.99  -999.99  -999.99      0.0000      0.00         1.5302E-12    140.06  5.1544E-13     90.24
   90.00    303.00   -999.99  -999.99  -999.99      0.0000      0.00         1.5281E-12    138.84  5.0890E-13     90.06
   90.00    304.00   -999.99  -999.99  -999.99      0.0000      0.00         1.5264E-12    137.64  5.0221E-13     89.89
   90.00    305.00   -999.99  -999.99  -999.99      0.0000      0.00         1.5250E-12    136.45  4.9538E-13     89.70
   90.00    306.00   -999.99  -999.99  -999.99      0.0000      0.00         1.5239E-12    135.27  4.8840E-13     89.53
   90.00    307.00   -999.99  -999.99  -999.99      0.0000      0.00         1.5231E-12    134.10  4.8129E-13     89.35
   90.00    308.00   -999.99  -999.99  -999.99      0.0000      0.00         1.5226E-12    132.95  4.7404E-13     89.18
   90.00    309.00   -999.99  -999.99  -999.99      0.0000      0.00         1.5224E-12    131.81  4.6667E-13     89.01
   90.00    310.00   -999.99  -999.99  -999.99      0.0000      0.00         1.5224E-12    130.70  4.5917E-13     88.84
   90.00    311.00   -999.99  -999.99  -999.99      0.0000      0.00         1.5227E-12    129.59  4.5155E-13     88.68
   90.00    312.00   -999.99  -999.99  -999.99      0.0000      0.00         1.5233E-12    128.51  4.4381E-13     88.51
   90.00    313.00   -999.99  -999.99  -999.99      0.0000      0.00         1.5241E-12    127.44  4.3596E-13     88.35
   90.00    314.00   -999.99  -999.99  -999.99      0.0000      0.00         1.5250E-12    126.39  4.2801E-13     88.19
   90.00    315.00   -999.99  -999.99  -999.99      0.0000      0.00         1.5263E-12    125.36  4.1995E-13     88.04
   90.00    316.00   -999.99  -999.99  -999.99      0.0000      0.00         1.5276E-12    124.35  4.1178E-13     87.88
   90.00    317.00   -999.99  -999.99  -999.99      0.0000      0.00         1.5292E-12    123.36  4.0352E-13     87.73
   90.00    318.00   -999.99  -999.99  -999.99      0.0000      0.00         1.5309E-12    122.39  3.9517E-13     87.58
   90.00    319.00   -999.99  -999.99  -999.99      0.0000      0.00         1.5328E-12    121.44  3.8674E-13     87.43
   90.00    320.00   -999.99  -999.99  -999.99      0.0000      0.00         1.5349E-12    120.51  3.7821E-13     87.29
   90.00    321.00   -999.99  -999.99  -999.99      0.0000      0.00         1.5370E-12    119.60  3.6960E-13     87.15
   90.00    322.00   -999.99  -999.99  -999.99      0.0000      0.00         1.5393E-12    118.72  3.6092E-13     87.01
   90.00    323.00   -999.99  -999.99  -999.99      0.0000      0.00         1.5417E-12    117.85  3.5215E-13     86.88
   90.00    324.00   -999.99  -999.99  -999.99      0.0000      0.00         1.5441E-12    117.01  3.4333E-13     86.75
   90.00    325.00   -999.99  -999.99  -999.99      0.0000      0.00         1.5467E-12    116.19  3.3443E-13     86.62
   90.00    326.00   -999.99  -999.99  -999.99      0.0000      0.00         1.5493E-12    115.40  3.2547E-13     86.49
   90.00    327.00   -999.99  -999.99  -999.99      0.0000      0.00         1.5520E-12    114.62  3.1644E-13     86.37
   90.00    328.00   -999.99  -999.99  -999.99      0.0000      0.00         1.5547E-12    113.87  3.0736E-13     86.25
   90.00    329.00   -999.99  -999.99  -999.99      0.0000      0.00         1.5574E-12    113.14  2.9822E-13     86.13
   90.00    330.00   -999.99  -999.99  -999.99      0.0000      0.00         1.5601E-12    112.44  2.8903E-13     86.02
   90.00    331.00   -999.99  -999.99  -999.99      0.0000      0.00         1.5629E-12    111.76  2.7980E-13     85.91
   90.00    332.00   -999.99  -999.99  -999.99      0.0000      0.00         1.5657E-12    111.10  2.7051E-13     85.80
   90.00    333.00   -999.99  -999.99  -999.99      0.0000      0.00         1.5684E-12    110.46  2.6118E-13     85.70
   90.00    334.00   -999.99  -999.99  -999.99      0.0000      0.00         1.5712E-12    109.85  2.5181E-13     85.59
   90.00    335.00   -999.99  -999.99  -999.99      0.0000      0.00         1.5739E-12    109.26  2.4240E-13     85.50
   90.00    336.00   -999.99  -999.99  -999.99      0.0000      0.00         1.5765E-12    108.70  2.3296E-13     85.41
   90.00    337.00   -999.99  -999.99  -999.99      0.0000      0.00         1.5791E-12    108.16  2.2348E-13     85.31
   90.00    338.00   -999.99  -999.99  -999.99      0.0000      0.00         1.5817E-12    107.64  2.1397E-13     85.23
   90.00    339.00   -999.99  -999.99  -999.99      0.0000      0.00         1.5842E-12    107.14  2.0442E-13     85.15
   90.00    340.00   -999.99  -999.99  -999.99      0.0000      0.00         1.5866E-12    106.67  1.9485E-13     85.07
   90.00    341.00   -999.99  -999.99  -999.99      0.0000      0.00         1.5890E-12    106.22  1.8525E-13     84.99
   90.00    342.00   -999.99  -999.99  -999.99      0.0000      0.00         1.5913E-12    105.80  1.7564E-13     84.92
   90.00    343.00   -999.99  -999.99  -999.99      0.0000      0.00         1.5935E-12    105.39  1.6599E-13     84.85
   90.00    344.00   -999.99  -999.99  -999.99      0.0000      0.00         1.5955E-12    105.02  1.5632E-13     84.79
   90.00    345.00   -999.99  -999.99  -999.99      0.0000      0.00         1.5975E-12    104.66  1.4664E-13     84.73
   90.00    346.00   -999.99  -999.99  -999.99      0.0000      0.00         1.5994E-12    104.33  1.3694E-13     84.67
   90.00    347.00   -999.99  -999.99  -999.99      0.0000      0.00         1.6012E-12    104.02  1.2722E-13     84.61
   90.00    348.00   -999.99  -999.99  -999.99      0.0000      0.00         1.6028E-12    103.73  1.1749E-13     84.57
   90.00    349.00   -999.99  -999.99  -999.99      0.0000      0.00         1.6044E-12    103.47  1.0774E-13     84.52
   90.00    350.00   -999.99  -999.99  -999.99      0.0000      0.00         1.6058E-12    103.23  9.7987E-14     84.48
   90.00    351.00   -999.99  -999.99  -999.99      0.0000      0.00         1.6071E-12    103.01  8.8217E-14     84.44
   90.00    352.00   -999.99  -999.99  -999.99      0.0000      0.00         1.6083E-12    102.82  7.8439E-14     84.41
   90.00    353.00   -999.99  -999.99  -999.99      0.0000      0.00         1.6093E-12    102.64  6.8652E-14     84.38
   90.00    354.00   -999.99  -999.99  -999.99      0.0000      0.00         1.6102E-12    102.50  5.8859E-14     84.35
   90.00    355.00   -999.99  -999.99  -999.99      0.0000      0.00         1.6110E-12    102.37  4.9058E-14     84.33
   90.00    356.00   -999.99  -999.99  -999.99      0.0000      0.00         1.6116E-12    102.27  3.9252E-14     84.32
   90.00    357.00   -999.99  -999.99  -999.99      0.0000      0.00         1.6121E-12    102.19  2.9442E-14     84.30
   90.00    358.00   -999.99  -999.99  -999.99      0.0000      0.00         1.6125E-12    102.13  1.9630E-14     84.29
   90.00    359.00   -999.99  -999.99  -999.99      0.0000      0.00         1.6127E-12    102.10  9.8158E-15     84.28
   90.00    360.00   -999.99  -999.99  -999.99      0.0000      0.00         1.6127E-12    102.08  1.1481E-23    -95.72


                               --------- FREQUENCY --------
                                FREQUENCY : 7.5000E+00 MHz
                                WAVELENGTH: 3.9973E+01 Mtr

                        APPROXIMATE INTEGRATION EMPLOYED FOR SEGMENTS 
                        THAT ARE MORE THAN 1.000 WAVELENGTHS APART


                          ------ STRUCTURE IMPEDANCE LOADING ------
  LOCATION        RESISTANCE  INDUCTANCE  CAPACITANCE     IMPEDANCE (OHMS)   CONDUCTIVITY  CIRCUIT
  ITAG FROM THRU     OHMS       HENRYS      FARADS       REAL     IMAGINARY   MHOS/METER      TYPE
     1    1   11                                                              5.8000E+07     WIRE  
     2    1    7                                                              5.8000E+07     WIRE  


                            -------- ANTENNA ENVIRONMENT --------
                            FINITE GROUND - SOMMERFELD SOLUTION
                            RELATIVE DIELECTRIC CONST: 13.000
                            CONDUCTIVITY:  5.000E-03 MHOS/METER
                            COMPLEX DIELECTRIC CONSTANT:  1.3000E+01-1.1984E+01j


                             ---------- MATRIX TIMING ----------
                               FILL: 0 msec  FACTOR: 0 msec


                        --------- ANTENNA INPUT PARAMETERS ---------
  TAG   SEG       VOLTAGE (VOLTS)         CURRENT (AMPS)         IMPEDANCE (OHMS)        ADMITTANCE (MHOS)     POWER
  No:   No:     REAL      IMAGINARY     REAL      IMAGINARY     REAL      IMAGINARY    REAL       IMAGINARY   (WATTS)
    1     1  1.0000E+00  0.0000E+00  4.7026E-04 -1.2000E-03  2.8308E+02  7.2239E+02  4.7026E-04 -1.2000E-03  2.3513E-04


                           -------- CURRENTS AND LOCATION --------
                                  DISTANCES IN WAVELENGTHS

   SEG  TAG    COORDINATES OF SEGM CENTER     SEGM    ------------- CURRENT (AMPS) -------------
   No:  No:       X         Y         Z      LENGTH     REAL      IMAGINARY    MAGN        PHASE
     1    1   -0.1512    0.0000    0.1251   0.03025  4.7026E-04 -1.2000E-03  1.2889E-03  -68.601
     2    1   -0.1210    0.0000    0.1251   0.03025  4.8546E-04 -1.2925E-03  1.3807E-03  -69.414
     3    1   -0.0907    0.0000    0.1251   0.03025  4.8595E-04 -1.3694E-03  1.4531E-03  -70.462
     4    1   -0.0605    0.0000    0.1251   0.03025  4.7170E-04 -1.3858E-03  1.4639E-03  -71.203
     5    1   -0.0302    0.0000    0.1251   0.03025  4.4317E-04 -1.3462E-03  1.4173E-03  -71.779
     6    1   -0.0000    0.0000    0.1251   0.03025  4.0132E-04 -1.2536E-03  1.3162E-03  -72.248
     7    1    0.0302    0.0000    0.1251   0.03025  3.4748E-04 -1.1117E-03  1.1647E-03  -72.643
     8    1    0.0605    0.0000    0.1251   0.03025  2.8333E-04 -9.2571E-04  9.6810E-04  -72.983
     9    1    0.0907    0.0000    0.1251   0.03025  2.1075E-04 -7.0162E-04  7.3259E-04  -73.281
    10    1    0.1210    0.0000    0.1251   0.03025  1.3161E-04 -4.4565E-04  4.6468E-04  -73.547
    11    1    0.1512    0.0000    0.1251   0.03025  4.6400E-05 -1.5958E-04  1.6619E-04  -73.787
    12    2   -0.1664    0.0000    0.1161   0.01787 -4.4812E-04  1.3267E-03  1.4003E-03  108.663
    13    2   -0.1664    0.0000    0.0983   0.01787 -4.2683E-04  1.4336E-03  1.4957E-03  106.580
    14    2   -0.1664    0.0000    0.0804   0.01787 -4.0179E-04  1.5177E-03  1.5700E-03  104.828
    15    2   -0.1664    0.0000    0.0625   0.01787 -3.7334E-04  1.5795E-03  1.6230E-03  103.299
    16    2   -0.1664    0.0000    0.0447   0.01787 -3.4189E-04  1.6188E-03  1.6545E-03  101.926
    17    2   -0.1664    0.0000    0.0268   0.01787 -3.0816E-04  1.6354E-03  1.6642E-03  100.671
    18    2   -0.1664    0.0000    0.0089   0.01787 -2.7781E-04  1.6332E-03  1.6567E-03   99.653


                               ---------- POWER BUDGET ---------
                               INPUT POWER   =  2.3513E-04 Watts
                               RADIATED POWER=  2.3169E-04 Watts
                               STRUCTURE LOSS=  3.4391E-06 Watts
                               NETWORK LOSS  =  0.0000E+00 Watts
                               EFFICIENCY    =   98.54 Percent


                             ---------- RADIATION PATTERNS -----------

 ---- ANGLES -----     ----- POWER GAINS -----       ---- POLARIZATION ----   ---- E(THETA) ----    ----- E(PHI) ------
  THETA      PHI       VERTC    HORIZ    TOTAL       AXIAL      TILT  SENSE   MAGNITUDE    PHASE    MAGNITUDE     PHASE
 DEGREES   DEGREES        DB       DB       DB       RATIO   DEGREES            VOLTS/M   DEGREES     VOLTS/M   DEGREES
   90.00      0.00   -999.99  -999.99  -999.99      0.0000      0.00         1.4675E-12     95.58  0.0000E+00      0.00
   90.00      1.00   -999.99  -999.99  -999.99      0.0000      0.00         1.4674E-12     95.59  9.6584E-15    -97.88
   90.00      2.00   -999.99  -999.99  -999.99      0.0000      0.00         1.4672E-12     95.63  1.9316E-14    -97.88
   90.00      3.00   -999.99  -999.99  -999.99      0.0000      0.00         1.4668E-12     95.69  2.8972E-14    -97.87
   90.00      4.00   -999.99  -999.99  -999.99      0.0000      0.00         1.4663E-12     95.77  3.8626E-14    -97.85
   90.00      5.00   -999.99  -999.99  -999.99      0.0000      0.00         1.4656E-12     95.88  4.8277E-14    -97.83
   90.00      6.00   -999.99  -999.99  -999.99      0.0000      0.00         1.4647E-12     96.01  5.7925E-14    -97.81
   90.00      7.00   -999.99  -999.99  -999.99      0.0000      0.00         1.4638E-12     96.16  6.7569E-14    -97.79
   90.00      8.00   -999.99  -999.99  -999.99      0.0000      0.00         1.4626E-12     96.34  7.7207E-14    -97.76
   90.00      9.00   -999.99  -999.99  -999.99      0.0000      0.00         1.4613E-12     96.54  8.6838E-14    -97.73
   90.00     10.00   -999.99  -999.99  -999.99      0.0000      0.00         1.4599E-12     96.76  9.6462E-14    -97.68
   90.00     11.00   -999.99  -999.99  -999.99      0.0000      0.00         1.4583E-12     97.01  1.0608E-13    -97.65
   90.00     12.00   -999.99  -999.99  -999.99      0.0000      0.00         1.4566E-12     97.28  1.1569E-13    -97.60
   90.00     13.00   -999.99  -999.99  -999.99      0.0000      0.00         1.4548E-12     97.58  1.2528E-13    -97.55
   90.00     14.00   -999.99  -999.99  -999.99      0.0000      0.00         1.4528E-12     97.90  1.3487E-13    -97.50
   90.00     15.00   -999.99  -999.99  -999.99      0.0000      0.00         1.4508E-12     98.25  1.4445E-13    -97.44
   90.00     16.00   -999.99  -999.99  -999.99      0.0000      0.00         1.4485E-12     98.61  1.5401E-13    -97.39
   90.00     17.00   -999.99  -999.99  -999.99      0.0000      0.00         1.4462E-12     99.01  1.6355E-13    -97.32
   90.00     18.00   -999.99  -999.99  -999.99      0.0000      0.00         1.4438E-12     99.42  1.7308E-13    -97.25
   90.00     19.00   -999.99  -999.99  -999.99      0.0000      0.00         1.4412E-12     99.86  1.8259E-13    -97.19
   90.00     20.00   -999.99  -999.99  -999.99      0.0000      0.00         1.4386E-12    100.33  1.9209E-13    -97.11
   90.00     21.00   -999.99  -999.99  -999.99      0.0000      0.00         1.4358E-12    100.82  2.0156E-13    -97.03
   90.00     22.00   -999.99  -999.99  -999.99      0.0000      0.00         1.4330E-12    101.34  2.1101E-13    -96.95
   90.00     23.00   -999.99  -999.99  -999.99      0.0000      0.00         1.4301E-12    101.88  2.2043E-13    -96.87
   90.00     24.00   -999.99  -999.99  -999.99      0.0000      0.00         1.4271E-12    102.44  2.2983E-13    -96.78
   90.00     25.00   -999.99  -999.99  -999.99      0.0000      0.00         1.4241E-12    103.03  2.3919E-13    -96.68
   90.00     26.00   -999.99  -999.99  -999.99      0.0000      0.00         1.4210E-12    103.64  2.4853E-13    -96.59
   90.00     27.00   -999.99  -999.99  -999.99      0.0000      0.00         1.4178E-12    104.28  2.5784E-13    -96.49
   90.00     28.00   -999.99  -999.99  -999.99      0.0000      0.00         1.4146E-12    104.94  2.6711E-13    -96.39
   90.00     29.00   -999.99  -999.99  -999.99      0.0000      0.00         1.4114E-12    105.63  2.7634E-13    -96.28
   90.00     30.00   -999.99  -999.99  -999.99      0.0000      0.00         1.4082E-12    106.34  2.8553E-13    -96.17
   90.00     31.00   -999.99  -999.99  -999.99      0.0000      0.00         1.4049E-12    107.08  2.9467E-13    -96.06
   90.00     32.00   -999.99  -999.99  -999.99      0.0000      0.00         1.4016E-12    107.84  3.0377E-13    -95.95
   90.00     33.00   -999.99  -999.99  -999.99      0.0000      0.00         1.3984E-12    108.63  3.1283E-13    -95.83
   90.00     34.00   -999.99  -999.99  -999.99      0.0000      0.00         1.3952E-12    109.44  3.2183E-13    -95.71
   90.00     35.00   -999.99  -999.99  -999.99      0.0000      0.00         1.3920E-12    110.28  3.3077E-13    -95.58
   90.00     36.00   -999.99  -999.99  -999.99      0.0000      0.00         1.3889E-12    111.14  3.3965E-13    -95.46
   90.00     37.00   -999.99  -999.99  -999.99      0.0000      0.00         1.3858E-12    112.03  3.4848E-13    -95.33
   90.00     38.00   -999.99  -999.99  -999.99      0.0000      0.00         1.3828E-12    112.94  3.5724E-13    -95.19
   90.00     39.00   -999.99  -999.99  -999.99      0.0000      0.00         1.3799E-12    113.87  3.6594E-13    -95.06
   90.00     40.00   -999.99  -999.99  -999.99      0.0000      0.00         1.3771E-12    114.83  3.7455E-13    -94.92
   90.00     41.00   -999.99  -999.99  -999.99      0.0000      0.00         1.3744E-12    115.81  3.8309E-13    -94.78
   90.00     42.00   -999.99  -999.99  -999.99      0.0000      0.00         1.3718E-12    116.82  3.9156E-13    -94.63
   90.00     43.00   -999.99  -999.99  -999.99      0.0000      0.00         1.3693E-12    117.85  3.9993E-13    -94.49
   90.00     44.00   -999.99  -999.99  -999.99      0.0000      0.00         1.3670E-12    118.90  4.0823E-13    -94.35
   90.00     45.00   -999.99  -999.99  -999.99      0.0000      0.00         1.3649E-12    119.97  4.1643E-13    -94.19
   90.00     46.00   -999.99  -999.99  -999.99      0.0000      0.00         1.3630E-12    121.06  4.2453E-13    -94.03
   90.00     47.00   -999.99  -999.99  -999.99      0.0000      0.00         1.3612E-12    122.18  4.3254E-13    -93.88
   90.00     48.00   -999.99  -999.99  -999.99      0.0000      0.00         1.3597E-12    123.32  4.4044E-13    -93.73
   90.00     49.00   -999.99  -999.99  -999.99      0.0000      0.00         1.3584E-12    124.47  4.4822E-13    -93.56
   90.00     50.00   -999.99  -999.99  -999.99      0.0000      0.00         1.3573E-12    125.65  4.5591E-13    -93.40
   90.00     51.00   -999.99  -999.99  -999.99      0.0000      0.00         1.3565E-12    126.85  4.6347E-13    -93.23
   90.00     52.00   -999.99  -999.99  -999.99      0.0000      0.00         1.3559E-12    128.06  4.7090E-13    -93.07
   90.00     53.00   -999.99  -999.99  -999.99      0.0000      0.00         1.3556E-12    129.29  4.7822E-13    -92.90
   90.00     54.00   -999.99  -999.99  -999.99      0.0000      0.00         1.3556E-12    130.54  4.8540E-13    -92.73
   90.00     55.00   -999.99  -999.99  -999.99      0.0000      0.00         1.3559E-12    131.80  4.9245E-13    -92.55
   90.00     56.00   -999.99  -999.99  -999.99      0.0000      0.00         1.3565E-12    133.08  4.9936E-13    -92.38
   90.00     57.00   -999.99  -999.99  -999.99      0.0000      0.00         1.3575E-12    134.38  5.0611E-13    -92.20
   90.00     58.00   -999.99  -999.99  -999.99      0.0000      0.00         1.3587E-12    135.68  5.1274E-13    -92.02
   90.00     59.00   -999.99  -999.99  -999.99      0.0000      0.00         1.3603E-12    137.00  5.1919E-13    -91.84
   90.00     60.00   -999.99  -999.99  -999.99      0.0000      0.00         1.3623E-12    138.33  5.2550E-13    -91.66
   90.00     61.00   -999.99  -999.99  -999.99      0.0000      0.00         1.3646E-12    139.67  5.3164E-13    -91.47
   90.00     62.00   -999.99  -999.99  -999.99      0.0000      0.00         1.3673E-12    141.02  5.3762E-13    -91.29
   90.00     63.00   -999.99  -999.99  -999.99      0.0000      0.00         1.3703E-12    142.37  5.4342E-13    -91.10
   90.00     64.00   -999.99  -999.99  -999.99      0.0000      0.00         1.3737E-12    143.73  5.4905E-13    -90.91
   90.00     65.00   -999.99  -999.99  -999.99      0.0000      0.00         1.3775E-12    145.10  5.5450E-13    -90.73
   90.00     66.00   -999.99  -999.99  -999.99      0.0000      0.00         1.3816E-12    146.47  5.5976E-13    -90.53
   90.00     67.00   -999.99  -999.99  -999.99      0.0000      0.00         1.3861E-12    147.85  5.6485E-13    -90.34
   90.00     68.00   -999.99  -999.99  -999.99      0.0000      0.00         1.3910E-12    149.23  5.6973E-13    -90.15
   90.00     69.00   -999.99  -999.99  -999.99      0.0000      0.00         1.3963E-12    150.60  5.7443E-13    -89.95
   90.00     70.00   -999.99  -999.99  -999.99      0.0000      0.00         1.4020E-12    151.98  5.7892E-13    -89.76
   90.00     71.00   -999.99  -999.99  -999.99      0.0000      0.00         1.4080E-12    153.36  5.8322E-13    -89.56
   90.00     72.00   -999.99  -999.99  -999.99      0.0000      0.00         1.4144E-12    154.74  5.8730E-13    -89.36
   90.00     73.00   -999.99  -999.99  -999.99      0.0000      0.00         1.4211E-12    156.11  5.9118E-13    -89.16
   90.00     74.00   -999.99  -999.99  -999.99      0.0000      0.00         1.4282E-12    157.48  5.9485E-13    -88.96
   90.00     75.00   -999.99  -999.99  -999.99      0.0000      0.00         1.4356E-12    158.84  5.9830E-13    -88.76
   90.00     76.00   -999.99  -999.99  -999.99      0.0000      0.00         1.4434E-12    160.20  6.0154E-13    -88.56
   90.00     77.00   -999.99  -999.99  -999.99      0.0000      0.00         1.4515E-12    161.55  6.0455E-13    -88.36
   90.00     78.00   -999.99  -999.99  -999.99      0.0000      0.00         1.4599E-12    162.89  6.0734E-13    -88.16
   90.00     79.00   -999.99  -999.99  -999.99      0.0000      0.00         1.4686E-12    164.22  6.0989E-13    -87.95
   90.00     80.00   -999.99  -999.99  -999.99      0.0000      0.00         1.4777E-12    165.55  6.1223E-13    -87.75
   90.00     81.00   -999.99  -999.99  -999.99      0.0000      0.00         1.4870E-12    166.86  6.1434E-13    -87.55
   90.00     82.00   -999.99  -999.99  -999.99      0.0000      0.00         1.4965E-12    168.17  6.1621E-13    -87.34
   90.00     83.00   -999.99  -999.99  -999.99      0.0000      0.00         1.5063E-12    169.46  6.1785E-13    -87.13
   90.00     84.00   -999.99  -999.99  -999.99      0.0000      0.00         1.5164E-12    170.75  6.1925E-13    -86.93
   90.00     85.00   -999.99  -999.99  -999.99      0.0000      0.00         1.5267E-12    172.02  6.2043E-13    -86.72
   90.00     86.00   -999.99  -999.99  -999.99      0.0000      0.00         1.5372E-12    173.27  6.2136E-13    -86.51
   90.00     87.00   -999.99  -999.99  -999.99      0.0000      0.00         1.5478E-12    174.52  6.2204E-13    -86.31
   90.00     88.00   -999.99  -999.99  -999.99      0.0000      0.00         1.5587E-12    175.75  6.2251E-13    -86.10
   90.00     89.00   -999.99  -999.99  -999.99      0.0000      0.00         1.5697E-12    176.97  6.2272E-13    -85.90
   90.00     90.00   -999.99  -999.99  -999.99      0.0000      0.00         1.5809E-12    178.17  6.2270E-13    -85.69
   90.00     91.00   -999.99  -999.99  -999.99      0.0000      0.00         1.5922E-12    179.36  6.2245E-13    -85.48
   90.00     92.00   -999.99  -999.99  -999.99      0.0000      0.00         1.6035E-12   -179.46  6.2195E-13    -85.27
   90.00     93.00   -999.99  -999.99  -999.99      0.0000      0.00         1.6150E-12   -178.30  6.2121E-13    -85.07
   90.00     94.00   -999.99  -999.99  -999.99      0.0000      0.00         1.6266E-12   -177.15  6.2022E-13    -84.86
   90.00     95.00   -999.99  -999.99  -999.99      0.0000      0.00         1.6383E-12   -176.02  6.1902E-13    -84.66
   90.00     96.00   -999.99  -999.99  -999.99      0.0000      0.00         1.6500E-12   -174.90  6.1758E-13    -84.45
   90.00     97.00   -999.99  -999.99  -999.99      0.0000      0.00         1.6617E-12   -173.80  6.1589E-13    -84.25
   90.00     98.00   -999.99  -999.99  -999.99      0.0000      0.00         1.6734E-12   -172.72  6.1401E-13    -84.04
   90.00     99.00   -999.99  -999.99  -999.99      0.0000      0.00         1.6852E-12   -171.64  6.1185E-13    -83.83
   90.00    100.00   -999.99  -999.99  -999.99      0.0000      0.00         1.6969E-12   -170.59  6.0949E-13    -83.63
   90.00    101.00   -999.99  -999.99  -999.99      0.0000      0.00         1.7086E-12   -169.54  6.0691E-13    -83.42
   90.00    102.00   -999.99  -999.99  -999.99      0.0000      0.00         1.7203E-12   -168.52  6.0408E-13    -83.22
   90.00    103.00   -999.99  -999.99  -999.99      0.0000      0.00         1.7319E-12   -167.51  6.0103E-13    -83.02
   90.00    104.00   -999.99  -999.99  -999.99      0.0000      0.00         1.7434E-12   -166.51  5.9779E-13    -82.81
   90.00    105.00   -999.99  -999.99  -999.99      0.0000      0.00         1.7549E-12   -165.52  5.9431E-13    -82.61
   90.00    106.00   -999.99  -999.99  -999.99      0.0000      0.00         1.7663E-12   -164.56  5.9061E-13    -82.42
   90.00    107.00   -999.99  -999.99  -999.99      0.0000      0.00         1.7775E-12   -163.60  5.8673E-13    -82.22
   90.00    108.00   -999.99  -999.99  -999.99      0.0000      0.00         1.7887E-12   -162.66  5.8262E-13    -82.01
   90.00    109.00   -999.99  -999.99  -999.99      0.0000      0.00         1.7997E-12   -161.74  5.7832E-13    -81.82
   90.00    110.00   -999.99  -999.99  -999.99      0.0000      0.00         1.8106E-12   -160.83  5.7382E-13    -81.62
   90.00    111.00   -999.99  -999.99  -999.99      0.0000      0.00         1.8214E-12   -159.93  5.6911E-13    -81.42
   90.00    112.00   -999.99  -999.99  -999.99      0.0000      0.00         1.8320E-12   -159.05  5.6422E-13    -81.23
   90.00    113.00   -999.99  -999.99  -999.99      0.0000      0.00         1.8425E-12   -158.18  5.5914E-13    -81.04
   90.00    114.00   -999.99  -999.99  -999.99      0.0000      0.00         1.8527E-12   -157.33  5.5388E-13    -80.84
   90.00    115.00   -999.99  -999.99  -999.99      0.0000      0.00         1.8628E-12   -156.49  5.4846E-13    -80.65
   90.00    116.00   -999.99  -999.99  -999.99      0.0000      0.00         1.8728E-12   -155.66  5.4282E-13    -80.46
   90.00    117.00   -999.99  -999.99  -999.99      0.0000      0.00         1.8825E-12   -154.85  5.3703E-13    -80.27
   90.00    118.00   -999.99  -999.99  -999.99      0.0000      0.00         1.8920E-12   -154.05  5.3107E-13    -80.09
   90.00    119.00   -999.99  -999.99  -999.99      0.0000      0.00         1.9014E-12   -153.26  5.2496E-13    -79.90
   90.00    120.00   -999.99  -999.99  -999.99      0.0000      0.00         1.9105E-12   -152.49  5.1869E-13    -79.71
   90.00    121.00   -999.99  -999.99  -999.99      0.0000      0.00         1.9195E-12   -151.73  5.1226E-13    -79.53
   90.00    122.00   -999.99  -999.99  -999.99      0.0000      0.00         1.9282E-12   -150.98  5.0570E-13    -79.35
   90.00    123.00   -999.99  -999.99  -999.99      0.0000      0.00         1.9367E-12   -150.25  4.9897E-13    -79.17
   90.00    124.00   -999.99  -999.99  -999.99      0.0000      0.00         1.9450E-12   -149.53  4.9211E-13    -78.99
   90.00    125.00   -999.99  -999.99  -999.99      0.0000      0.00         1.9531E-12   -148.82  4.8511E-13    -78.82
   90.00    126.00   -999.99  -999.99  -999.99      0.0000      0.00         1.9610E-12   -148.12  4.7798E-13    -78.65
   90.00    127.00   -999.99  -999.99  -999.99      0.0000      0.00         1.9686E-12   -147.44  4.7073E-13    -78.47
   90.00    128.00   -999.99  -999.99  -999.99      0.0000      0.00         1.9761E-12   -146.77  4.6336E-13    -78.31
   90.00    129.00   -999.99  -999.99  -999.99      0.0000      0.00         1.9833E-12   -146.11  4.5588E-13    -78.14
   90.00    130.00   -999.99  -999.99  -999.99      0.0000      0.00         1.9903E-12   -145.47  4.4826E-13    -77.97
   90.00    131.00   -999.99  -999.99  -999.99      0.0000      0.00         1.9970E-12   -144.84  4.4057E-13    -77.81
   90.00    132.00   -999.99  -999.99  -999.99      0.0000      0.00         2.0036E-12   -144.22  4.3275E-13    -77.65
   90.00    133.00   -999.99  -999.99  -999.99      0.0000      0.00         2.0099E-12   -143.61  4.2484E-13    -77.49
   90.00    134.00   -999.99  -999.99  -999.99      0.0000      0.00         2.0161E-12   -143.02  4.1683E-13    -77.33
   90.00    135.00   -999.99  -999.99  -999.99      0.0000      0.00         2.0220E-12   -142.43  4.0873E-13    -77.17
   90.00    136.00   -999.99  -999.99  -999.99      0.0000      0.00         2.0277E-12   -141.86  4.0055E-13    -77.02
   90.00    137.00   -999.99  -999.99  -999.99      0.0000      0.00         2.0332E-12   -141.31  3.9229E-13    -76.88
   90.00    138.00   -999.99  -999.99  -999.99      0.0000      0.00         2.0385E-12   -140.76  3.8393E-13    -76.73
   90.00    139.00   -999.99  -999.99  -999.99      0.0000      0.00         2.0436E-12   -140.23  3.7551E-13    -76.59
   90.00    140.00   -999.99  -999.99  -999.99      0.0000      0.00         2.0485E-12   -139.71  3.6703E-13    -76.45
   90.00    141.00   -999.99  -999.99  -999.99      0.0000      0.00         2.0531E-12   -139.20  3.5847E-13    -76.30
   90.00    142.00   -999.99  -999.99  -999.99      0.0000      0.00         2.0577E-12   -138.70  3.4985E-13    -76.17
   90.00    143.00   -999.99  -999.99  -999.99      0.0000      0.00         2.0620E-12   -138.22  3.4117E-13    -76.04
   90.00    144.00   -999.99  -999.99  -999.99      0.0000      0.00         2.0661E-12   -137.75  3.3243E-13    -75.91
   90.00    145.00   -999.99  -999.99  -999.99      0.0000      0.00         2.0701E-12   -137.29  3.2364E-13    -75.78
   90.00    146.00   -999.99  -999.99  -999.99      0.0000      0.00         2.0738E-12   -136.85  3.1480E-13    -75.65
   90.00    147.00   -999.99  -999.99  -999.99      0.0000      0.00         2.0774E-12   -136.41  3.0591E-13    -75.53
   90.00    148.00   -999.99  -999.99  -999.99      0.0000      0.00         2.0809E-12   -135.99  2.9699E-13    -75.41
   90.00    149.00   -999.99  -999.99  -999.99      0.0000      0.00         2.0842E-12   -135.58  2.8801E-13    -75.30
   90.00    150.00   -999.99  -999.99  -999.99      0.0000      0.00         2.0873E-12   -135.19  2.7900E-13    -75.19
   90.00    151.00   -999.99  -999.99  -999.99      0.0000      0.00         2.0902E-12   -134.80  2.6995E-13    -75.07
   90.00    152.00   -999.99  -999.99  -999.99      0.0000      0.00         2.0931E-12   -134.43  2.6087E-13    -74.97
   90.00    153.00   -999.99  -999.99  -999.99      0.0000      0.00         2.0957E-12   -134.07  2.5177E-13    -74.87
   90.00    154.00   -999.99  -999.99  -999.99      0.0000      0.00         2.0983E-12   -133.73  2.4263E-13    -74.77
   90.00    155.00   -999.99  -999.99  -999.99      0.0000      0.00         2.1007E-12   -133.39  2.3346E-13    -74.67
   90.00    156.00   -999.99  -999.99  -999.99      0.0000      0.00         2.1029E-12   -133.07  2.2428E-13    -74.58
   90.00    157.00   -999.99  -999.99  -999.99      0.0000      0.00         2.1050E-12   -132.77  2.1505E-13    -74.49
   90.00    158.00   -999.99  -999.99  -999.99      0.0000      0.00         2.1070E-12   -132.47  2.0582E-13    -74.41
   90.00    159.00   -999.99  -999.99  -999.99      0.0000      0.00         2.1089E-12   -132.19  1.9657E-13    -74.33
   90.00    160.00   -999.99  -999.99  -999.99      0.0000      0.00         2.1107E-12   -131.92  1.8730E-13    -74.25
   90.00    161.00   -999.99  -999.99  -999.99      0.0000      0.00         2.1124E-12   -131.66  1.7801E-13    -74.17
   90.00    162.00   -999.99  -999.99  -999.99      0.0000      0.00         2.1139E-12   -131.42  1.6871E-13    -74.10
   90.00    163.00   -999.99  -999.99  -999.99      0.0000      0.00         2.1154E-12   -131.19  1.5940E-13    -74.03
   90.00    164.00   -999.99  -999.99  -999.99      0.0000      0.00         2.1167E-12   -130.97  1.5007E-13    -73.97
   90.00    165.00   -999.99  -999.99  -999.99      0.0000      0.00         2.1179E-12   -130.76  1.4073E-13    -73.91
   90.00    166.00   -999.99  -999.99  -999.99      0.0000      0.00         2.1191E-12   -130.57  1.3139E-13    -73.86
   90.00    167.00   -999.99  -999.99  -999.99      0.0000      0.00         2.1201E-12   -130.39  1.2204E-13    -73.80
   90.00    168.00   -999.99  -999.99  -999.99      0.0000      0.00         2.1211E-12   -130.23  1.1268E-13    -73.75
   90.00    169.00   -999.99  -999.99  -999.99      0.0000      0.00         2.1220E-12   -130.08  1.0331E-13    -73.71
   90.00    170.00   -999.99  -999.99  -999.99      0.0000      0.00         2.1228E-12   -129.94  9.3936E-14    -73.66
   90.00    171.00   -999.99  -999.99  -999.99      0.0000      0.00         2.1235E-12   -129.81  8.4553E-14    -73.63
   90.00    172.00   -999.99  -999.99  -999.99      0.0000      0.00         2.1241E-12   -129.70  7.5172E-14    -73.59
   90.00    173.00   -999.99  -999.99  -999.99      0.0000      0.00         2.1247E-12   -129.60  6.5782E-14    -73.56
   90.00    174.00   -999.99  -999.99  -999.99      0.0000      0.00         2.1251E-12   -129.51  5.6390E-14    -73.54
   90.00    175.00   -999.99  -999.99  -999.99      0.0000      0.00         2.1256E-12   -129.44  4.6998E-14    -73.52
   90.00    176.00   -999.99  -999.99  -999.99      0.0000      0.00         2.1259E-12   -129.38  3.7601E-14    -73.50
   90.00    177.00   -999.99  -999.99  -999.99      0.0000      0.00         2.1261E-12   -129.33  2.8202E-14    -73.49
   90.00    178.00   -999.99  -999.99  -999.99      0.0000      0.00         2.1263E-12   -129.30  1.8802E-14    -73.48
   90.00    179.00   -999.99  -999.99  -999.99      0.0000      0.00         2.1264E-12   -129.28  9.4011E-15    -73.47
   90.00    180.00   -999.99  -999.99  -999.99      0.0000      0.00         2.1264E-12   -129.27  5.4977E-24    106.53
   90.00    181.00   -999.99  -999.99  -999.99      0.0000      0.00         2.1264E-12   -129.28  9.4012E-15    106.53
   90.00    182.00   -999.99  -999.99  -999.99      0.0000      0.00         2.1263E-12   -129.30  1.8802E-14    106.52
   90.00    183.00   -999.99  -999.99  -999.99      0.0000      0.00         2.1261E-12   -129.33  2.8202E-14    106.51
   90.00    184.00   -999.99  -999.99  -999.99      0.0000      0.00         2.1259E-12   -129.38  3.7599E-14    106.50
   90.00    185.00   -999.99  -999.99  -999.99      0.0000      0.00         2.1256E-12   -129.44  4.6998E-14    106.48
   90.00    186.00   -999.99  -999.99  -999.99      0.0000      0.00         2.1252E-12   -129.51  5.6390E-14    106.46
   90.00    187.00   -999.99  -999.99  -999.99      0.0000      0.00         2.1247E-12   -129.60  6.5783E-14    106.44
[...]
   90.00    196.00   -999.99  -999.99  -999.99      0.0000      0.00         2.4004E-12    -46.52  1.0604E-13    -49.00
   90.00    197.00   -999.99  -999.99  -999.99      0.0000      0.00         2.3981E-12    -47.13  1.1243E-13    -48.94
   90.00    198.00   -999.99  -999.99  -999.99      0.0000      0.00         2.3956E-12    -47.78  1.1878E-13    -48.88
   90.00    199.00   -999.99  -999.99  -999.99      0.0000      0.00         2.3931E-12    -48.46  1.2508E-13    -48.81
   90.00    200.00   -999.99  -999.99  -999.99      0.0000      0.00         2.3905E-12    -49.18  1.3132E-13    -48.74
   90.00    201.00   -999.99  -999.99  -999.99      0.0000      0.00         2.3877E-12    -49.94  1.3752E-13    -48.66
   90.00    202.00   -999.99  -999.99  -999.99      0.0000      0.00         2.3849E-12    -50.74  1.4365E-13    -48.58
   90.00    203.00   -999.99  -999.99  -999.99      0.0000      0.00         2.3820E-12    -51.57  1.4972E-13    -48.50
   90.00    204.00   -999.99  -999.99  -999.99      0.0000      0.00         2.3791E-12    -52.44  1.5571E-13    -48.40
   90.00    205.00   -999.99  -999.99  -999.99      0.0000      0.00         2.3762E-12    -53.34  1.6164E-13    -48.30
   90.00    206.00   -999.99  -999.99  -999.99      0.0000      0.00         2.3731E-12    -54.28  1.6749E-13    -48.19
   90.00    207.00   -999.99  -999.99  -999.99      0.0000      0.00         2.3701E-12    -55.26  1.7326E-13    -48.08
   90.00    208.00   -999.99  -999.99  -999.99      0.0000      0.00         2.3670E-12    -56.27  1.7894E-13    -47.96
   90.00    209.00   -999.99  -999.99  -999.99      0.0000      0.00         2.3640E-12    -57.31  1.8453E-13    -47.83
   90.00    210.00   -999.99  -999.99  -999.99      0.0000      0.00         2.3609E-12    -58.40  1.9002E-13    -47.69
   90.00    211.00   -999.99  -999.99  -999.99      0.0000      0.00         2.3579E-12    -59.51  1.9541E-13    -47.54
   90.00    212.00   -999.99  -999.99  -999.99      0.0000      0.00         2.3549E-12    -60.66  2.0071E-13    -47.38
   90.00    213.00   -999.99  -999.99  -999.99      0.0000      0.00         2.3519E-12    -61.85  2.0589E-13    -47.22
   90.00    214.00   -999.99  -999.99  -999.99      0.0000      0.00         2.3490E-12    -63.07  2.1096E-13    -47.04
   90.00    215.00   -999.99  -999.99  -999.99      0.0000      0.00         2.3462E-12    -64.32  2.1591E-13    -46.85
   90.00    216.00   -999.99  -999.99  -999.99      0.0000      0.00         2.3435E-12    -65.61  2.2074E-13    -46.66
   90.00    217.00   -999.99  -999.99  -999.99      0.0000      0.00         2.3408E-12    -66.93  2.2543E-13    -46.45
   90.00    218.00   -999.99  -999.99  -999.99      0.0000      0.00         2.3383E-12    -68.28  2.3000E-13    -46.23
   90.00    219.00   -999.99  -999.99  -999.99      0.0000      0.00         2.3360E-12    -69.66  2.3443E-13    -45.99
   90.00    220.00   -999.99  -999.99  -999.99      0.0000      0.00         2.3337E-12    -71.08  2.3872E-13    -45.75
   90.00    221.00   -999.99  -999.99  -999.99      0.0000      0.00         2.3317E-12    -72.52  2.4286E-13    -45.49
   90.00    222.00   -999.99  -999.99  -999.99      0.0000      0.00         2.3298E-12    -74.00  2.4686E-13    -45.21
   90.00    223.00   -999.99  -999.99  -999.99      0.0000      0.00         2.3281E-12    -75.50  2.5070E-13    -44.92
   90.00    224.00   -999.99  -999.99  -999.99      0.0000      0.00         2.3266E-12    -77.03  2.5438E-13    -44.62
   90.00    225.00   -999.99  -999.99  -999.99      0.0000      0.00         2.3253E-12    -78.60  2.5791E-13    -44.29
   90.00    226.00   -999.99  -999.99  -999.99      0.0000      0.00         2.3243E-12    -80.18  2.6128E-13    -43.95
   90.00    227.00   -999.99  -999.99  -999.99      0.0000      0.00         2.3235E-12    -81.80  2.6447E-13    -43.60
   90.00    228.00   -999.99  -999.99  -999.99      0.0000      0.00         2.3229E-12    -83.44  2.6751E-13    -43.22
   90.00    229.00   -999.99  -999.99  -999.99      0.0000      0.00         2.3226E-12    -85.10  2.7037E-13    -42.83
   90.00    230.00   -999.99  -999.99  -999.99      0.0000      0.00         2.3225E-12    -86.79  2.7307E-13    -42.41
   90.00    231.00   -999.99  -999.99  -999.99      0.0000      0.00         2.3228E-12    -88.50  2.7559E-13    -41.98
   90.00    232.00   -999.99  -999.99  -999.99      0.0000      0.00         2.3233E-12    -90.23  2.7794E-13    -41.52
   90.00    233.00   -999.99  -999.99  -999.99      0.0000      0.00         2.3240E-12    -91.99  2.8012E-13    -41.04
   90.00    234.00   -999.99  -999.99  -999.99      0.0000      0.00         2.3251E-12    -93.76  2.8213E-13    -40.54
   90.00    235.00   -999.99  -999.99  -999.99      0.0000      0.00         2.3264E-12    -95.55  2.8396E-13    -40.01
   90.00    236.00   -999.99  -999.99  -999.99      0.0000      0.00         2.3280E-12    -97.36  2.8564E-13    -39.46
   90.00    237.00   -999.99  -999.99  -999.99      0.0000      0.00         2.3299E-12    -99.19  2.8714E-13    -38.89
   90.00    238.00   -999.99  -999.99  -999.99      0.0000      0.00         2.3321E-12   -101.03  2.8849E-13    -38.28
   90.00    239.00   -999.99  -999.99  -999.99      0.0000      0.00         2.3345E-12   -102.89  2.8967E-13    -37.66
   90.00    240.00   -999.99  -999.99  -999.99      0.0000      0.00         2.3372E-12   -104.76  2.9071E-13    -37.00
   90.00    241.00   -999.99  -999.99  -999.99      0.0000      0.00         2.3401E-12   -106.64  2.9159E-13    -36.31
   90.00    242.00   -999.99  -999.99  -999.99      0.0000      0.00         2.3432E-12   -108.54  2.9233E-13    -35.60
   90.00    243.00   -999.99  -999.99  -999.99      0.0000      0.00         2.3466E-12   -110.44  2.9294E-13    -34.85
   90.00    244.00   -999.99  -999.99  -999.99      0.0000      0.00         2.3502E-12   -112.35  2.9341E-13    -34.08
   90.00    245.00   -999.99  -999.99  -999.99      0.0000      0.00         2.3539E-12   -114.28  2.9376E-13    -33.27
   90.00    246.00   -999.99  -999.99  -999.99      0.0000      0.00         2.3578E-12   -116.21  2.9399E-13    -32.43
   90.00    247.00   -999.99  -999.99  -999.99      0.0000      0.00         2.3619E-12   -118.15  2.9412E-13    -31.56
   90.00    248.00   -999.99  -999.99  -999.99      0.0000      0.00         2.3661E-12   -120.09  2.9415E-13    -30.66
   90.00    249.00   -999.99  -999.99  -999.99      0.0000      0.00         2.3704E-12   -122.04  2.9410E-13    -29.72
   90.00    250.00   -999.99  -999.99  -999.99      0.0000      0.00         2.3747E-12   -123.99  2.9396E-13    -28.75
   90.00    251.00   -999.99  -999.99  -999.99      0.0000      0.00         2.3791E-12   -125.95  2.9378E-13    -27.75
   90.00    252.00   -999.99  -999.99  -999.99      0.0000      0.00         2.3836E-12   -127.91  2.9352E-13    -26.72
   90.00    253.00   -999.99  -999.99  -999.99      0.0000      0.00         2.3880E-12   -129.87  2.9323E-13    -25.65
   90.00    254.00   -999.99  -999.99  -999.99      0.0000      0.00         2.3924E-12   -131.83  2.9290E-13    -24.55
   90.00    255.00   -999.99  -999.99  -999.99      0.0000      0.00         2.3968E-12   -133.80  2.9256E-13    -23.43
   90.00    256.00   -999.99  -999.99  -999.99      0.0000      0.00         2.4010E-12   -135.76  2.9220E-13    -22.27
   90.00    257.00   -999.99  -999.99  -999.99      0.0000      0.00         2.4052E-12   -137.73  2.9185E-13    -21.08
   90.00    258.00   -999.99  -999.99  -999.99      0.0000      0.00         2.4092E-12   -139.70  2.9151E-13    -19.87
   90.00    259.00   -999.99  -999.99  -999.99      0.0000      0.00         2.4131E-12   -141.66  2.9120E-13    -18.63
   90.00    260.00   -999.99  -999.99  -999.99      0.0000      0.00         2.4168E-12   -143.63  2.9092E-13    -17.36
   90.00    261.00   -999.99  -999.99  -999.99      0.0000      0.00         2.4203E-12   -145.59  2.9069E-13    -16.08
   90.00    262.00   -999.99  -999.99  -999.99      0.0000      0.00         2.4236E-12   -147.55  2.9050E-13    -14.77
   90.00    263.00   -999.99  -999.99  -999.99      0.0000      0.00         2.4266E-12   -149.51  2.9038E-13    -13.45
   90.00    264.00   -999.99  -999.99  -999.99      0.0000      0.00         2.4293E-12   -151.47  2.9032E-13    -12.11
   90.00    265.00   -999.99  -999.99  -999.99      0.0000      0.00         2.4318E-12   -153.43  2.9034E-13    -10.76
   90.00    266.00   -999.99  -999.99  -999.99      0.0000      0.00         2.4339E-12   -155.39  2.9043E-13     -9.40
   90.00    267.00   -999.99  -999.99  -999.99      0.0000      0.00         2.4358E-12   -157.34  2.9061E-13     -8.03
   90.00    268.00   -999.99  -999.99  -999.99      0.0000      0.00         2.4373E-12   -159.30  2.9088E-13     -6.66
   90.00    269.00   -999.99  -999.99  -999.99      0.0000      0.00         2.4384E-12   -161.25  2.9122E-13     -5.29
   90.00    270.00   -999.99  -999.99  -999.99      0.0000      0.00         2.4392E-12   -163.19  2.9165E-13     -3.92
   90.00    271.00   -999.99  -999.99  -999.99      0.0000      0.00         2.4397E-12   -165.14  2.9217E-13     -2.55
   90.00    272.00   -999.99  -999.99  -999.99      0.0000      0.00         2.4397E-12   -167.09  2.9277E-13     -1.20
   90.00    273.00   -999.99  -999.99  -999.99      0.0000      0.00         2.4394E-12   -169.03  2.9344E-13      0.15
   90.00    274.00   -999.99  -999.99  -999.99      0.0000      0.00         2.4388E-12   -170.97  2.9419E-13      1.48
   90.00    275.00   -999.99  -999.99  -999.99      0.0000      0.00         2.4377E-12   -172.91  2.9500E-13      2.79
   90.00    276.00   -999.99  -999.99  -999.99      0.0000      0.00         2.4363E-12   -174.85  2.9587E-13      4.09
   90.00    277.00   -999.99  -999.99  -999.99      0.0000      0.00         2.4346E-12   -176.78  2.9679E-13      5.36
   90.00    278.00   -999.99  -999.99  -999.99      0.0000      0.00         2.4324E-12   -178.72  2.9775E-13      6.62
   90.00    279.00   -999.99  -999.99  -999.99      0.0000      0.00         2.4300E-12    179.35  2.9874E-13      7.84
   90.00    280.00   -999.99  -999.99  -999.99      0.0000      0.00         2.4272E-12    177.42  2.9976E-13      9.04
   90.00    281.00   -999.99  -999.99  -999.99      0.0000      0.00         2.4241E-12    175.49  3.0077E-13     10.22
   90.00    282.00   -999.99  -999.99  -999.99      0.0000      0.00         2.4207E-12    173.57  3.0180E-13     11.36
   90.00    283.00   -999.99  -999.99  -999.99      0.0000      0.00         2.4170E-12    171.64  3.0280E-13     12.48
   90.00    284.00   -999.99  -999.99  -999.99      0.0000      0.00         2.4130E-12    169.72  3.0378E-13     13.56
   90.00    285.00   -999.99  -999.99  -999.99      0.0000      0.00         2.4088E-12    167.80  3.0472E-13     14.61
   90.00    286.00   -999.99  -999.99  -999.99      0.0000      0.00         2.4043E-12    165.88  3.0562E-13     15.63
   90.00    287.00   -999.99  -999.99  -999.99      0.0000      0.00         2.3997E-12    163.97  3.0645E-13     16.62
   90.00    288.00   -999.99  -999.99  -999.99      0.0000      0.00         2.3949E-12    162.06  3.0721E-13     17.58
   90.00    289.00   -999.99  -999.99  -999.99      0.0000      0.00         2.3899E-12    160.15  3.0788E-13     18.50
   90.00    290.00   -999.99  -999.99  -999.99      0.0000      0.00         2.3848E-12    158.25  3.0846E-13     19.39
   90.00    291.00   -999.99  -999.99  -999.99      0.0000      0.00         2.3796E-12    156.35  3.0894E-13     20.25
   90.00    292.00   -999.99  -999.99  -999.99      0.0000      0.00         2.3742E-12    154.45  3.0930E-13     21.08
   90.00    293.00   -999.99  -999.99  -999.99      0.0000      0.00         2.3689E-12    152.56  3.0953E-13     21.88
   90.00    294.00   -999.99  -999.99  -999.99      0.0000      0.00         2.3635E-12    150.67  3.0963E-13     22.64
   90.00    295.00   -999.99  -999.99  -999.99      0.0000      0.00         2.3581E-12    148.80  3.0959E-13     23.38
   90.00    296.00   -999.99  -999.99  -999.99      0.0000      0.00         2.3527E-12    146.92  3.0941E-13     24.09
   90.00    297.00   -999.99  -999.99  -999.99      0.0000      0.00         2.3473E-12    145.06  3.0906E-13     24.77
   90.00    298.00   -999.99  -999.99  -999.99      0.0000      0.00         2.3420E-12    143.20  3.0855E-13     25.42
   90.00    299.00   -999.99  -999.99  -999.99      0.0000      0.00         2.3368E-12    141.35  3.0788E-13     26.04
   90.00    300.00   -999.99  -999.99  -999.99      0.0000      0.00         2.3317E-12    139.51  3.0703E-13     26.64
   90.00    301.00   -999.99  -999.99  -999.99      0.0000      0.00         2.3267E-12    137.68  3.0600E-13     27.22
   90.00    302.00   -999.99  -999.99  -999.99      0.0000      0.00         2.3219E-12    135.87  3.0479E-13     27.77
   90.00    303.00   -999.99  -999.99  -999.99      0.0000      0.00         2.3172E-12    134.06  3.0341E-13     28.29
   90.00    304.00   -999.99  -999.99  -999.99      0.0000      0.00         2.3127E-12    132.27  3.0183E-13     28.79
   90.00    305.00   -999.99  -999.99  -999.99      0.0000      0.00         2.3084E-12    130.49  3.0007E-13     29.27
   90.00    306.00   -999.99  -999.99  -999.99      0.0000      0.00         2.3043E-12    128.72  2.9811E-13     29.73
   90.00    307.00   -999.99  -999.99  -999.99      0.0000      0.00         2.3005E-12    126.97  2.9598E-13     30.17
   90.00    308.00   -999.99  -999.99  -999.99      0.0000      0.00         2.2968E-12    125.24  2.9365E-13     30.58
   90.00    309.00   -999.99  -999.99  -999.99      0.0000      0.00         2.2934E-12    123.52  2.9113E-13     30.98
   90.00    310.00   -999.99  -999.99  -999.99      0.0000      0.00         2.2902E-12    121.82  2.8843E-13     31.36
   90.00    311.00   -999.99  -999.99  -999.99      0.0000      0.00         2.2873E-12    120.15  2.8553E-13     31.72
   90.00    312.00   -999.99  -999.99  -999.99      0.0000      0.00         2.2847E-12    118.49  2.8246E-13     32.07
   90.00    313.00   -999.99  -999.99  -999.99      0.0000      0.00         2.2823E-12    116.85  2.7921E-13     32.39
   90.00    314.00   -999.99  -999.99  -999.99      0.0000      0.00         2.2801E-12    115.24  2.7576E-13     32.71
   90.00    315.00   -999.99  -999.99  -999.99      0.0000      0.00         2.2782E-12    113.65  2.7216E-13     33.00
   90.00    316.00   -999.99  -999.99  -999.99      0.0000      0.00         2.2765E-12    112.08  2.6838E-13     33.28
   90.00    317.00   -999.99  -999.99  -999.99      0.0000      0.00         2.2751E-12    110.54  2.6443E-13     33.55
   90.00    318.00   -999.99  -999.99  -999.99      0.0000      0.00         2.2739E-12    109.02  2.6031E-13     33.81
   90.00    319.00   -999.99  -999.99  -999.99      0.0000      0.00         2.2730E-12    107.53  2.5604E-13     34.05
   90.00    320.00   -999.99  -999.99  -999.99      0.0000      0.00         2.2723E-12    106.07  2.5160E-13     34.28
   90.00    321.00   -999.99  -999.99  -999.99      0.0000      0.00         2.2718E-12    104.63  2.4703E-13     34.50
   90.00    322.00   -999.99  -999.99  -999.99      0.0000      0.00         2.2716E-12    103.23  2.4230E-13     34.71
   90.00    323.00   -999.99  -999.99  -999.99      0.0000      0.00         2.2715E-12    101.85  2.3742E-13     34.90
   90.00    324.00   -999.99  -999.99  -999.99      0.0000      0.00         2.2716E-12    100.51  2.3242E-13     35.09
   90.00    325.00   -999.99  -999.99  -999.99      0.0000      0.00         2.2719E-12     99.20  2.2728E-13     35.27
   90.00    326.00   -999.99  -999.99  -999.99      0.0000      0.00         2.2724E-12     97.91  2.2202E-13     35.43
   90.00    327.00   -999.99  -999.99  -999.99      0.0000      0.00         2.2730E-12     96.66  2.1663E-13     35.59
   90.00    328.00   -999.99  -999.99  -999.99      0.0000      0.00         2.2738E-12     95.45  2.1113E-13     35.74
   90.00    329.00   -999.99  -999.99  -999.99      0.0000      0.00         2.2747E-12     94.27  2.0552E-13     35.88
   90.00    330.00   -999.99  -999.99  -999.99      0.0000      0.00         2.2757E-12     93.12  1.9980E-13     36.01
   90.00    331.00   -999.99  -999.99  -999.99      0.0000      0.00         2.2768E-12     92.00  1.9398E-13     36.14
   90.00    332.00   -999.99  -999.99  -999.99      0.0000      0.00         2.2780E-12     90.92  1.8806E-13     36.26
   90.00    333.00   -999.99  -999.99  -999.99      0.0000      0.00         2.2793E-12     89.88  1.8205E-13     36.37
   90.00    334.00   -999.99  -999.99  -999.99      0.0000      0.00         2.2807E-12     88.87  1.7596E-13     36.47
   90.00    335.00   -999.99  -999.99  -999.99      0.0000      0.00         2.2821E-12     87.90  1.6978E-13     36.57
   90.00    336.00   -999.99  -999.99  -999.99      0.0000      0.00         2.2836E-12     86.96  1.6353E-13     36.66
   90.00    337.00   -999.99  -999.99  -999.99      0.0000      0.00         2.2850E-12     86.06  1.5720E-13     36.75
   90.00    338.00   -999.99  -999.99  -999.99      0.0000      0.00         2.2866E-12     85.19  1.5081E-13     36.83
   90.00    339.00   -999.99  -999.99  -999.99      0.0000      0.00         2.2881E-12     84.37  1.4434E-13     36.91
   90.00    340.00   -999.99  -999.99  -999.99      0.0000      0.00         2.2896E-12     83.58  1.3783E-13     36.98
   90.00    341.00   -999.99  -999.99  -999.99      0.0000      0.00         2.2911E-12     82.83  1.3125E-13     37.05
   90.00    342.00   -999.99  -999.99  -999.99      0.0000      0.00         2.2927E-12     82.11  1.2462E-13     37.11
   90.00    343.00   -999.99  -999.99  -999.99      0.0000      0.00         2.2941E-12     81.44  1.1795E-13     37.16
   90.00    344.00   -999.99  -999.99  -999.99      0.0000      0.00         2.2956E-12     80.80  1.1122E-13     37.22
   90.00    345.00   -999.99  -999.99  -999.99      0.0000      0.00         2.2969E-12     80.20  1.0446E-13     37.26
   90.00    346.00   -999.99  -999.99  -999.99      0.0000      0.00         2.2983E-12     79.64  9.7656E-14     37.31
   90.00    347.00   -999.99  -999.99  -999.99      0.0000      0.00         2.2995E-12     79.11  9.0822E-14     37.35
   90.00    348.00   -999.99  -999.99  -999.99      0.0000      0.00         2.3008E-12     78.63  8.3952E-14     37.39
   90.00    349.00   -999.99  -999.99  -999.99      0.0000      0.00         2.3019E-12     78.18  7.7054E-14     37.42
   90.00    350.00   -999.99  -999.99  -999.99      0.0000      0.00         2.3029E-12     77.78  7.0130E-14     37.45
   90.00    351.00   -999.99  -999.99  -999.99      0.0000      0.00         2.3039E-12     77.41  6.3182E-14     37.48
   90.00    352.00   -999.99  -999.99  -999.99      0.0000      0.00         2.3048E-12     77.08  5.6212E-14     37.51
   90.00    353.00   -999.99  -999.99  -999.99      0.0000      0.00         2.3056E-12     76.78  4.9225E-14     37.53
   90.00    354.00   -999.99  -999.99  -999.99      0.0000      0.00         2.3063E-12     76.53  4.2223E-14     37.55
   90.00    355.00   -999.99  -999.99  -999.99      0.0000      0.00         2.3068E-12     76.32  3.5206E-14     37.56
   90.00    356.00   -999.99  -999.99  -999.99      0.0000      0.00         2.3073E-12     76.14  2.8178E-14     37.57
   90.00    357.00   -999.99  -999.99  -999.99      0.0000      0.00         2.3077E-12     76.01  2.1141E-14     37.58
   90.00    358.00   -999.99  -999.99  -999.99      0.0000      0.00         2.3080E-12     75.91  1.4098E-14     37.59
   90.00    359.00   -999.99  -999.99  -999.99      0.0000      0.00         2.3082E-12     75.85  7.0500E-15     37.59
   90.00    360.00   -999.99  -999.99  -999.99      0.0000      0.00         2.3082E-12     75.83  8.2461E-24   -142.40
  DATA CARD No:   7 EN   0     0     0     0  0.00000E+00  0.00000E+00  0.00000E+00  0.00000E+00  0.00000E+00  0.00000E+00

  TOTAL RUN TIME: 890 msec